* NGSPICE file created from integrator.ext - technology: ihp-sg13g2

.subckt integrator Vref VSS VDD RST Vctr VOUT
X0 VSS.t188 VSS.t189 VSS rppd l=0.5u w=0.5u
X1 a_2584_2122# a_1267_2122# VDD.t48 VDD.t3 sg13_lv_pmos ad=0.68p pd=4.68u as=0.68p ps=4.68u w=2u l=0.13u
X2 a_3521_3236# VOUT.t6 VSS rppd l=0.5u w=0.5u
X3 a_1941_5986# a_1839_1008.t2 a_1839_5464# VDD.t6 sg13_lv_pmos ad=0.38p pd=2.38u as=0.38p ps=2.38u w=2u l=0.13u
X4 a_3521_1008# a_3317_1008# VDD.t44 VDD.t3 sg13_lv_pmos ad=0.68p pd=4.68u as=0.38p ps=2.38u w=2u l=0.13u
X5 a_917_2086.t2 a_917_2086.t1 VDD.t9 VDD.t3 sg13_lv_pmos ad=0.68p pd=4.68u as=0.68p ps=4.68u w=2u l=0.13u
X6 VSS.t122 VSS.t123 VSS rppd l=0.5u w=0.5u
X7 a_1369_2844# a_1267_3236# a_1267_2122# VSS.t49 sg13_lv_nmos ad=0.19p pd=1.38u as=0.19p ps=1.38u w=1u l=0.13u
X8 VSS.t80 Vctr.t0 a_1369_5072# VSS.t71 sg13_lv_nmos ad=0.34p pd=2.68u as=0.19p ps=1.38u w=1u l=0.13u
X9 a_2907_2122# a_1267_2122# a_2805_2844# VSS.t46 sg13_lv_nmos ad=0.19p pd=1.38u as=0.19p ps=1.38u w=1u l=0.13u
X10 a_2805_5464# a_1839_5464# VSS.t131 VSS.t51 sg13_lv_nmos ad=0.19p pd=1.38u as=0.34p ps=2.68u w=1u l=0.13u
X11 a_3009_5072# a_2584_4350# a_2907_4350# VSS.t79 sg13_lv_nmos ad=0.19p pd=1.38u as=0.19p ps=1.38u w=1u l=0.13u
X12 a_1941_1008# a_1839_2122# a_1839_1008.t0 VSS.t112 sg13_lv_nmos ad=0.19p pd=1.38u as=0.19p ps=1.38u w=1u l=0.13u
X13 a_3317_1008# a_2907_1008# VDD.t4 VDD.t3 sg13_lv_pmos ad=0.68p pd=4.68u as=0.68p ps=4.68u w=2u l=0.13u
X14 VSS.t60 Vref.t0 a_1941_5464# VSS.t59 sg13_lv_nmos ad=0.34p pd=2.68u as=0.19p ps=1.38u w=1u l=0.13u
X15 VSS.t75 VSS.t76 VSS rppd l=0.5u w=0.5u
X16 a_1839_3236# VDD.t71 VDD.t72 VDD.t0 sg13_lv_pmos ad=0.38p pd=2.38u as=0.68p ps=4.68u w=2u l=0.13u
X17 VSS.t133 Vctr.t1 a_1369_3236# VSS.t132 sg13_lv_nmos ad=0.34p pd=2.68u as=0.19p ps=1.38u w=1u l=0.13u
X18 a_1941_2122# a_1839_3236# a_1839_2122# VDD.t3 sg13_lv_pmos ad=0.38p pd=2.38u as=0.38p ps=2.38u w=2u l=0.13u
X19 a_3009_3236# a_2584_3236# a_2907_3236# VSS.t102 sg13_lv_nmos ad=0.19p pd=1.38u as=0.19p ps=1.38u w=1u l=0.13u
X20 a_3521_2122# a_3317_2122# VSS.t205 VSS.t93 sg13_lv_nmos ad=0.34p pd=2.68u as=0.19p ps=1.38u w=1u l=0.13u
X21 a_1369_5986# a_1267_1008.t2 a_1267_5464# VDD.t6 sg13_lv_pmos ad=0.38p pd=2.38u as=0.38p ps=2.38u w=2u l=0.13u
X22 VSS.t8 VSS.t9 VSS rppd l=0.5u w=0.5u
X23 VSS.t63 VSS.t64 VSS rppd l=0.5u w=0.5u
X24 a_2907_5464# a_2584_5464# a_2805_5986# VDD.t6 sg13_lv_pmos ad=0.38p pd=2.38u as=0.38p ps=2.38u w=2u l=0.13u
X25 a_3521_5464# a_3317_5464# VSS.t109 VSS.t108 sg13_lv_nmos ad=0.19p pd=1.38u as=0.34p ps=2.68u w=1u l=0.13u
X26 VDD.t36 a_917_3663.t3 a_1369_4350# VDD.t0 sg13_lv_pmos ad=0.68p pd=4.68u as=0.38p ps=2.38u w=2u l=0.13u
X27 a_3317_2122# a_2907_2122# VSS.t29 VSS.t2 sg13_lv_nmos ad=0.34p pd=2.68u as=0.34p ps=2.68u w=1u l=0.13u
X28 VSS.t44 VSS.t45 VSS rppd l=0.5u w=0.5u
X29 a_3009_4350# a_1267_4350# a_2907_4350# VDD.t0 sg13_lv_pmos ad=0.38p pd=2.38u as=0.38p ps=2.38u w=2u l=0.13u
X30 a_1369_1008# a_1267_2122# a_1267_1008.t0 VSS.t203 sg13_lv_nmos ad=0.19p pd=1.38u as=0.19p ps=1.38u w=1u l=0.13u
X31 a_2907_1008# a_1267_1008.t3 a_2805_1008# VSS.t65 sg13_lv_nmos ad=0.19p pd=1.38u as=0.19p ps=1.38u w=1u l=0.13u
X32 VSS.t113 VSS.t114 VSS rppd l=0.5u w=0.5u
X33 a_1267_3236# VDD.t69 VDD.t70 VDD.t0 sg13_lv_pmos ad=0.38p pd=2.38u as=0.68p ps=4.68u w=2u l=0.13u
X34 a_2380_4350# a_1839_4350# VSS.t54 VSS.t53 sg13_lv_nmos ad=0.34p pd=2.68u as=0.34p ps=2.68u w=1u l=0.13u
X35 a_3521_5464# a_3317_5464# VDD.t27 VDD.t6 sg13_lv_pmos ad=0.68p pd=4.68u as=0.38p ps=2.38u w=2u l=0.13u
X36 a_1369_2122# a_1267_3236# a_1267_2122# VDD.t3 sg13_lv_pmos ad=0.38p pd=2.38u as=0.38p ps=2.38u w=2u l=0.13u
X37 VSS.t162 VSS.t163 VSS rppd l=0.5u w=0.5u
X38 a_2907_2122# a_2584_2122# a_2805_2122# VDD.t3 sg13_lv_pmos ad=0.38p pd=2.38u as=0.38p ps=2.38u w=2u l=0.13u
X39 a_3317_5464# a_2907_5464# VDD.t20 VDD.t6 sg13_lv_pmos ad=0.68p pd=4.68u as=0.68p ps=4.68u w=2u l=0.13u
X40 a_3521_1008# a_3317_1008# VSS.t173 VSS.t176 sg13_lv_nmos ad=0.34p pd=2.68u as=0.19p ps=1.38u w=1u l=0.13u
X41 a_2380_3236# a_1839_3236# VSS.t101 VSS.t100 sg13_lv_nmos ad=0.34p pd=2.68u as=0.34p ps=2.68u w=1u l=0.13u
X42 VSS.t4 VSS.t5 VSS rppd l=0.5u w=0.5u
X43 VDD.t22 a_3317_3236# a_3521_3236# VDD.t0 sg13_lv_pmos ad=0.38p pd=2.38u as=0.38p ps=2.38u w=2u l=0.13u
X44 a_3317_1008# a_2907_1008# VSS.t7 VSS.t6 sg13_lv_nmos ad=0.34p pd=2.68u as=0.34p ps=2.68u w=1u l=0.13u
X45 VSS.t119 VSS.t120 VSS rppd l=0.5u w=0.5u
X46 VDD.t5 a_917_3663.t4 a_1369_1530# VDD.t3 sg13_lv_pmos ad=0.68p pd=4.68u as=0.38p ps=2.38u w=2u l=0.13u
X47 a_3521_2122# a_3317_2122# VDD.t50 VDD.t3 sg13_lv_pmos ad=0.68p pd=4.68u as=0.38p ps=2.38u w=2u l=0.13u
X48 a_2380_4350# a_1839_4350# VDD.t16 VDD.t0 sg13_lv_pmos ad=0.68p pd=4.68u as=0.68p ps=4.68u w=2u l=0.13u
X49 VDD.t17 a_2380_3236# a_3009_3758# VDD.t0 sg13_lv_pmos ad=0.68p pd=4.68u as=0.38p ps=2.38u w=2u l=0.13u
X50 a_1839_5464# RST.t0 VSS.t138 VSS.t137 sg13_lv_nmos ad=0.19p pd=1.38u as=0.34p ps=2.68u w=1u l=0.13u
X51 a_2584_3236# a_1267_3236# VDD.t14 VDD.t0 sg13_lv_pmos ad=0.68p pd=4.68u as=0.68p ps=4.68u w=2u l=0.13u
X52 a_3009_1530# a_1267_1008.t4 a_2907_1008# VDD.t3 sg13_lv_pmos ad=0.38p pd=2.38u as=0.38p ps=2.38u w=2u l=0.13u
X53 a_3317_2122# a_2907_2122# VDD.t13 VDD.t3 sg13_lv_pmos ad=0.68p pd=4.68u as=0.68p ps=4.68u w=2u l=0.13u
X54 a_3521_3236# VOUT.t9 VSS rppd l=0.5u w=0.5u
X55 VSS.t150 VSS.t151 VSS rppd l=0.5u w=0.5u
X56 VSS.t168 VSS.t169 VSS rppd l=0.5u w=0.5u
X57 a_917_3663.t1 a_917_3663.t0 VDD.t32 VDD.t0 sg13_lv_pmos ad=0.68p pd=4.68u as=0.68p ps=4.68u w=2u l=0.13u
X58 VSS.t134 Vctr.t2 a_1369_2844# VSS.t132 sg13_lv_nmos ad=0.34p pd=2.68u as=0.19p ps=1.38u w=1u l=0.13u
X59 VSS.t73 VSS.t74 VSS rppd l=0.5u w=0.5u
X60 a_3009_2844# a_2584_2122# a_2907_2122# VSS.t102 sg13_lv_nmos ad=0.19p pd=1.38u as=0.19p ps=1.38u w=1u l=0.13u
X61 a_1267_5464# RST.t1 VSS.t127 VSS.t126 sg13_lv_nmos ad=0.19p pd=1.38u as=0.34p ps=2.68u w=1u l=0.13u
X62 a_2805_5072# a_1839_4350# VSS.t52 VSS.t51 sg13_lv_nmos ad=0.19p pd=1.38u as=0.34p ps=2.68u w=1u l=0.13u
X63 VSS.t61 Vref.t1 a_1941_5072# VSS.t59 sg13_lv_nmos ad=0.34p pd=2.68u as=0.19p ps=1.38u w=1u l=0.13u
X64 a_1941_3758# a_1839_4350# a_1839_3236# VDD.t0 sg13_lv_pmos ad=0.38p pd=2.38u as=0.38p ps=2.38u w=2u l=0.13u
X65 a_2380_1008# a_1839_1008.t3 VDD.t73 VDD.t3 sg13_lv_pmos ad=0.68p pd=4.68u as=0.68p ps=4.68u w=2u l=0.13u
X66 a_3521_4350# VOUT.t3 VSS rppd l=0.5u w=0.5u
X67 a_2805_3236# a_1839_3236# VSS.t99 VSS.t98 sg13_lv_nmos ad=0.19p pd=1.38u as=0.34p ps=2.68u w=1u l=0.13u
X68 VSS.t30 VSS.t31 VSS rppd l=0.5u w=0.5u
X69 VDD.t7 a_917_3663.t5 a_1369_5986# VDD.t6 sg13_lv_pmos ad=0.68p pd=4.68u as=0.38p ps=2.38u w=2u l=0.13u
X70 VSS.t166 VSS.t167 VSS rppd l=0.5u w=0.5u
X71 VSS.t157 Vref.t2 a_1941_3236# VSS.t156 sg13_lv_nmos ad=0.34p pd=2.68u as=0.19p ps=1.38u w=1u l=0.13u
X72 VSS.t77 VSS.t78 VSS rppd l=0.5u w=0.5u
X73 a_3009_5986# a_1267_5464# a_2907_5464# VDD.t6 sg13_lv_pmos ad=0.38p pd=2.38u as=0.38p ps=2.38u w=2u l=0.13u
X74 VSS.t106 a_3317_5464# a_3521_5464# VSS.t107 sg13_lv_nmos ad=0.19p pd=1.38u as=0.19p ps=1.38u w=1u l=0.13u
X75 a_3521_4350# a_3317_4350# VSS.t143 VSS.t108 sg13_lv_nmos ad=0.19p pd=1.38u as=0.34p ps=2.68u w=1u l=0.13u
X76 a_2805_4350# a_1839_4350# VDD.t15 VDD.t0 sg13_lv_pmos ad=0.38p pd=2.38u as=0.68p ps=4.68u w=2u l=0.13u
X77 VSS.t24 VSS.t25 VSS rppd l=0.5u w=0.5u
X78 VSS.t136 Vctr.t3 a_1369_1008# VSS.t135 sg13_lv_nmos ad=0.34p pd=2.68u as=0.19p ps=1.38u w=1u l=0.13u
X79 VDD.t10 a_917_2086.t3 a_1941_4350# VDD.t0 sg13_lv_pmos ad=0.68p pd=4.68u as=0.38p ps=2.38u w=2u l=0.13u
X80 a_3009_1008# a_2584_1008# a_2907_1008# VSS.t17 sg13_lv_nmos ad=0.19p pd=1.38u as=0.19p ps=1.38u w=1u l=0.13u
X81 VSS.t91 VSS.t92 VSS rppd l=0.5u w=0.5u
X82 VSS.t15 VSS.t16 VSS rppd l=0.5u w=0.5u
X83 VSS.t68 a_2380_5464# a_3009_5464# VSS.t0 sg13_lv_nmos ad=0.34p pd=2.68u as=0.19p ps=1.38u w=1u l=0.13u
X84 a_1369_3758# a_1267_4350# a_1267_3236# VDD.t0 sg13_lv_pmos ad=0.38p pd=2.38u as=0.38p ps=2.38u w=2u l=0.13u
X85 VSS.t146 VSS.t147 VSS rppd l=0.5u w=0.5u
X86 a_2380_2122# a_1839_2122# VSS.t111 VSS.t100 sg13_lv_nmos ad=0.34p pd=2.68u as=0.34p ps=2.68u w=1u l=0.13u
X87 a_2584_5464# a_1267_5464# VSS.t204 VSS.t178 sg13_lv_nmos ad=0.34p pd=2.68u as=0.34p ps=2.68u w=1u l=0.13u
X88 a_2907_3236# a_2584_3236# a_2805_3758# VDD.t0 sg13_lv_pmos ad=0.38p pd=2.38u as=0.38p ps=2.38u w=2u l=0.13u
X89 VSS.t85 VSS.t86 VSS rppd l=0.5u w=0.5u
X90 VDD.t33 a_917_3663.t6 a_1369_2122# VDD.t3 sg13_lv_pmos ad=0.68p pd=4.68u as=0.38p ps=2.38u w=2u l=0.13u
X91 a_3521_3236# a_3317_3236# VSS.t97 VSS.t96 sg13_lv_nmos ad=0.19p pd=1.38u as=0.34p ps=2.68u w=1u l=0.13u
X92 a_3009_2122# a_1267_2122# a_2907_2122# VDD.t3 sg13_lv_pmos ad=0.38p pd=2.38u as=0.38p ps=2.38u w=2u l=0.13u
X93 VSS.t194 VSS.t195 VSS rppd l=0.5u w=0.5u
X94 a_3521_4350# a_3317_4350# VDD.t41 VDD.t0 sg13_lv_pmos ad=0.38p pd=2.38u as=0.68p ps=4.68u w=2u l=0.13u
X95 a_3521_3236# a_3317_3236# VDD.t22 VDD.t0 sg13_lv_pmos ad=0.68p pd=4.68u as=0.38p ps=2.38u w=2u l=0.13u
X96 a_2380_5464# a_1839_5464# VDD.t38 VDD.t6 sg13_lv_pmos ad=0.68p pd=4.68u as=0.68p ps=4.68u w=2u l=0.13u
X97 VSS.t190 VSS.t191 VSS rppd l=0.5u w=0.5u
X98 VSS.t200 VSS.t201 VSS rppd l=0.5u w=0.5u
X99 a_3317_3236# a_2907_3236# VDD.t2 VDD.t0 sg13_lv_pmos ad=0.68p pd=4.68u as=0.68p ps=4.68u w=2u l=0.13u
X100 a_1941_5464# a_1839_1008.t2 a_1839_5464# VSS.t26 sg13_lv_nmos ad=0.19p pd=1.38u as=0.19p ps=1.38u w=1u l=0.13u
X101 a_1839_4350# VSS.t186 VSS.t187 VSS.t137 sg13_lv_nmos ad=0.19p pd=1.38u as=0.34p ps=2.68u w=1u l=0.13u
X102 a_2380_1008# a_1839_1008.t3 VSS.t209 VSS.t208 sg13_lv_nmos ad=0.34p pd=2.68u as=0.34p ps=2.68u w=1u l=0.13u
X103 a_2805_1530# a_1839_1008.t4 VDD.t74 VDD.t3 sg13_lv_pmos ad=0.38p pd=2.38u as=0.68p ps=4.68u w=2u l=0.13u
X104 VSS.t144 VSS.t145 VSS rppd l=0.5u w=0.5u
X105 VDD.t11 a_917_2086.t4 a_1941_1530# VDD.t3 sg13_lv_pmos ad=0.68p pd=4.68u as=0.38p ps=2.38u w=2u l=0.13u
X106 VSS.t87 VSS.t88 VSS rppd l=0.5u w=0.5u
X107 VSS.t89 VSS.t90 VSS rppd l=0.5u w=0.5u
X108 VSS.t148 VSS.t149 VSS rppd l=0.5u w=0.5u
X109 a_2380_2122# a_1839_2122# VDD.t31 VDD.t3 sg13_lv_pmos ad=0.68p pd=4.68u as=0.68p ps=4.68u w=2u l=0.13u
X110 a_1839_3236# RST.t2 VSS.t129 VSS.t128 sg13_lv_nmos ad=0.19p pd=1.38u as=0.34p ps=2.68u w=1u l=0.13u
X111 a_3521_1008# VOUT.t2 VSS rppd l=0.5u w=0.5u
X112 VSS.t18 VSS.t19 VSS rppd l=0.5u w=0.5u
X113 VSS.t81 VSS.t82 VSS rppd l=0.5u w=0.5u
X114 a_3521_1008# a_3317_1008# VDD.t45 VDD.t3 sg13_lv_pmos ad=0.38p pd=2.38u as=0.68p ps=4.68u w=2u l=0.13u
X115 a_2805_2844# a_1839_2122# VSS.t110 VSS.t98 sg13_lv_nmos ad=0.19p pd=1.38u as=0.34p ps=2.68u w=1u l=0.13u
X116 a_1369_5464# a_1267_1008.t2 a_1267_5464# VSS.t10 sg13_lv_nmos ad=0.19p pd=1.38u as=0.19p ps=1.38u w=1u l=0.13u
X117 a_1267_4350# VSS.t184 VSS.t185 VSS.t126 sg13_lv_nmos ad=0.19p pd=1.38u as=0.34p ps=2.68u w=1u l=0.13u
X118 a_1839_4350# VDD.t55 VDD.t56 VDD.t0 sg13_lv_pmos ad=0.38p pd=2.38u as=0.68p ps=4.68u w=2u l=0.13u
X119 VSS.t158 Vref.t3 a_1941_2844# VSS.t156 sg13_lv_nmos ad=0.34p pd=2.68u as=0.19p ps=1.38u w=1u l=0.13u
X120 a_2907_5464# a_1267_5464# a_2805_5464# VSS.t177 sg13_lv_nmos ad=0.19p pd=1.38u as=0.19p ps=1.38u w=1u l=0.13u
X121 a_3521_4350# VOUT.t7 VSS rppd l=0.5u w=0.5u
X122 VSS.t20 VSS.t21 VSS rppd l=0.5u w=0.5u
X123 a_1267_3236# RST.t3 VSS.t56 VSS.t55 sg13_lv_nmos ad=0.19p pd=1.38u as=0.34p ps=2.68u w=1u l=0.13u
X124 a_3521_1008# VOUT.t1 VSS rppd l=0.5u w=0.5u
X125 a_2805_5986# a_1839_5464# VDD.t37 VDD.t6 sg13_lv_pmos ad=0.38p pd=2.38u as=0.68p ps=4.68u w=2u l=0.13u
X126 a_3521_5464# a_3317_5464# VSS.t106 VSS.t105 sg13_lv_nmos ad=0.34p pd=2.68u as=0.19p ps=1.38u w=1u l=0.13u
X127 a_3521_2122# a_3317_2122# VSS.t206 VSS.t96 sg13_lv_nmos ad=0.19p pd=1.38u as=0.34p ps=2.68u w=1u l=0.13u
X128 VDD.t12 a_917_2086.t5 a_1941_5986# VDD.t6 sg13_lv_pmos ad=0.68p pd=4.68u as=0.38p ps=2.38u w=2u l=0.13u
X129 VSS.t141 a_3317_4350# a_3521_4350# VSS.t107 sg13_lv_nmos ad=0.19p pd=1.38u as=0.19p ps=1.38u w=1u l=0.13u
X130 a_1267_4350# VDD.t67 VDD.t68 VDD.t0 sg13_lv_pmos ad=0.38p pd=2.38u as=0.68p ps=4.68u w=2u l=0.13u
X131 a_3317_5464# a_2907_5464# VSS.t84 VSS.t83 sg13_lv_nmos ad=0.34p pd=2.68u as=0.34p ps=2.68u w=1u l=0.13u
X132 VDD.t34 a_917_3663.t7 a_1369_3758# VDD.t0 sg13_lv_pmos ad=0.68p pd=4.68u as=0.38p ps=2.38u w=2u l=0.13u
X133 VSS.t164 VSS.t165 VSS rppd l=0.5u w=0.5u
X134 VSS.t11 VSS.t12 VSS rppd l=0.5u w=0.5u
X135 a_2805_1008# a_1839_1008.t4 VSS.t211 VSS.t210 sg13_lv_nmos ad=0.19p pd=1.38u as=0.34p ps=2.68u w=1u l=0.13u
X136 a_3521_2122# VOUT.t0 VSS rppd l=0.5u w=0.5u
X137 VSS.t1 a_2380_4350# a_3009_5072# VSS.t0 sg13_lv_nmos ad=0.34p pd=2.68u as=0.19p ps=1.38u w=1u l=0.13u
X138 VSS.t160 Vref.t4 a_1941_1008# VSS.t159 sg13_lv_nmos ad=0.34p pd=2.68u as=0.19p ps=1.38u w=1u l=0.13u
X139 a_2584_4350# a_1267_4350# VSS.t179 VSS.t178 sg13_lv_nmos ad=0.34p pd=2.68u as=0.34p ps=2.68u w=1u l=0.13u
X140 a_3009_3758# a_1267_3236# a_2907_3236# VDD.t0 sg13_lv_pmos ad=0.38p pd=2.38u as=0.38p ps=2.38u w=2u l=0.13u
X141 a_1839_1008.t1 VDD.t65 VDD.t66 VDD.t3 sg13_lv_pmos ad=0.38p pd=2.38u as=0.68p ps=4.68u w=2u l=0.13u
X142 VSS.t94 a_3317_3236# a_3521_3236# VSS.t95 sg13_lv_nmos ad=0.19p pd=1.38u as=0.19p ps=1.38u w=1u l=0.13u
X143 a_2805_2122# a_1839_2122# VDD.t30 VDD.t3 sg13_lv_pmos ad=0.38p pd=2.38u as=0.68p ps=4.68u w=2u l=0.13u
X144 a_3521_5464# a_3317_5464# VDD.t28 VDD.t6 sg13_lv_pmos ad=0.38p pd=2.38u as=0.68p ps=4.68u w=2u l=0.13u
X145 VDD.t42 a_917_2086.t6 a_1941_2122# VDD.t3 sg13_lv_pmos ad=0.68p pd=4.68u as=0.38p ps=2.38u w=2u l=0.13u
X146 VSS.t62 a_2380_3236# a_3009_3236# VSS.t13 sg13_lv_nmos ad=0.34p pd=2.68u as=0.19p ps=1.38u w=1u l=0.13u
X147 VDD.t39 a_3317_4350# a_3521_4350# VDD.t0 sg13_lv_pmos ad=0.38p pd=2.38u as=0.38p ps=2.38u w=2u l=0.13u
X148 a_2584_3236# a_1267_3236# VSS.t48 VSS.t47 sg13_lv_nmos ad=0.34p pd=2.68u as=0.34p ps=2.68u w=1u l=0.13u
X149 a_3521_1008# a_3317_1008# VSS.t175 VSS.t174 sg13_lv_nmos ad=0.19p pd=1.38u as=0.34p ps=2.68u w=1u l=0.13u
X150 VDD.t1 a_2380_4350# a_3009_4350# VDD.t0 sg13_lv_pmos ad=0.68p pd=4.68u as=0.38p ps=2.38u w=2u l=0.13u
X151 a_917_3663.t2 Vctr.t4 VSS.t70 VSS.t69 sg13_lv_nmos ad=0.34p pd=2.68u as=0.34p ps=2.68u w=1u l=0.13u
X152 a_2584_4350# a_1267_4350# VDD.t47 VDD.t0 sg13_lv_pmos ad=0.68p pd=4.68u as=0.68p ps=4.68u w=2u l=0.13u
X153 VSS.t22 VSS.t23 VSS rppd l=0.5u w=0.5u
X154 a_1839_2122# VSS.t182 VSS.t183 VSS.t128 sg13_lv_nmos ad=0.19p pd=1.38u as=0.34p ps=2.68u w=1u l=0.13u
X155 a_3521_5464# VOUT.t5 VSS rppd l=0.5u w=0.5u
X156 a_1941_5072# a_1839_5464# a_1839_4350# VSS.t26 sg13_lv_nmos ad=0.19p pd=1.38u as=0.19p ps=1.38u w=1u l=0.13u
X157 a_3521_2122# a_3317_2122# VDD.t51 VDD.t3 sg13_lv_pmos ad=0.38p pd=2.38u as=0.68p ps=4.68u w=2u l=0.13u
X158 a_1267_1008.t1 VDD.t63 VDD.t64 VDD.t3 sg13_lv_pmos ad=0.38p pd=2.38u as=0.68p ps=4.68u w=2u l=0.13u
X159 VSS.t38 VSS.t39 VSS rppd l=0.5u w=0.5u
X160 a_2380_3236# a_1839_3236# VDD.t25 VDD.t0 sg13_lv_pmos ad=0.68p pd=4.68u as=0.68p ps=4.68u w=2u l=0.13u
X161 VSS.t170 VSS.t171 VSS rppd l=0.5u w=0.5u
X162 VSS.t139 VSS.t140 VSS rppd l=0.5u w=0.5u
X163 a_1941_3236# a_1839_4350# a_1839_3236# VSS.t50 sg13_lv_nmos ad=0.19p pd=1.38u as=0.19p ps=1.38u w=1u l=0.13u
X164 VSS.t198 VSS.t199 VSS rppd l=0.5u w=0.5u
X165 VSS.t196 VSS.t197 VSS rppd l=0.5u w=0.5u
X166 a_1839_5464# VDD.t61 VDD.t62 VDD.t6 sg13_lv_pmos ad=0.38p pd=2.38u as=0.68p ps=4.68u w=2u l=0.13u
X167 VDD.t44 a_3317_1008# a_3521_1008# VDD.t3 sg13_lv_pmos ad=0.38p pd=2.38u as=0.38p ps=2.38u w=2u l=0.13u
X168 VSS.t72 Vctr.t5 a_1369_5464# VSS.t71 sg13_lv_nmos ad=0.34p pd=2.68u as=0.19p ps=1.38u w=1u l=0.13u
X169 a_1267_2122# VSS.t180 VSS.t181 VSS.t55 sg13_lv_nmos ad=0.19p pd=1.38u as=0.34p ps=2.68u w=1u l=0.13u
X170 a_3009_5464# a_2584_5464# a_2907_5464# VSS.t79 sg13_lv_nmos ad=0.19p pd=1.38u as=0.19p ps=1.38u w=1u l=0.13u
X171 a_1369_5072# a_1267_5464# a_1267_4350# VSS.t10 sg13_lv_nmos ad=0.19p pd=1.38u as=0.19p ps=1.38u w=1u l=0.13u
X172 a_1941_4350# a_1839_5464# a_1839_4350# VDD.t0 sg13_lv_pmos ad=0.38p pd=2.38u as=0.38p ps=2.38u w=2u l=0.13u
X173 VSS.t152 VSS.t153 VSS rppd l=0.5u w=0.5u
X174 a_2907_4350# a_1267_4350# a_2805_5072# VSS.t177 sg13_lv_nmos ad=0.19p pd=1.38u as=0.19p ps=1.38u w=1u l=0.13u
X175 a_1839_1008.t0 RST.t4 VSS.t58 VSS.t57 sg13_lv_nmos ad=0.19p pd=1.38u as=0.34p ps=2.68u w=1u l=0.13u
X176 VDD.t26 a_2380_1008# a_3009_1530# VDD.t3 sg13_lv_pmos ad=0.68p pd=4.68u as=0.38p ps=2.38u w=2u l=0.13u
X177 a_2584_1008# a_1267_1008.t5 VDD.t18 VDD.t3 sg13_lv_pmos ad=0.68p pd=4.68u as=0.68p ps=4.68u w=2u l=0.13u
X178 a_1369_3236# a_1267_4350# a_1267_3236# VSS.t49 sg13_lv_nmos ad=0.19p pd=1.38u as=0.19p ps=1.38u w=1u l=0.13u
X179 a_1839_2122# VDD.t59 VDD.t60 VDD.t3 sg13_lv_pmos ad=0.38p pd=2.38u as=0.68p ps=4.68u w=2u l=0.13u
X180 a_2907_3236# a_1267_3236# a_2805_3236# VSS.t46 sg13_lv_nmos ad=0.19p pd=1.38u as=0.19p ps=1.38u w=1u l=0.13u
X181 VSS.t205 a_3317_2122# a_3521_2122# VSS.t95 sg13_lv_nmos ad=0.19p pd=1.38u as=0.19p ps=1.38u w=1u l=0.13u
X182 a_1267_5464# VDD.t57 VDD.t58 VDD.t6 sg13_lv_pmos ad=0.38p pd=2.38u as=0.68p ps=4.68u w=2u l=0.13u
X183 a_3521_4350# a_3317_4350# VSS.t141 VSS.t105 sg13_lv_nmos ad=0.34p pd=2.68u as=0.19p ps=1.38u w=1u l=0.13u
X184 a_3521_2122# VOUT.t8 VSS rppd l=0.5u w=0.5u
X185 a_3317_4350# a_2907_4350# VSS.t121 VSS.t83 sg13_lv_nmos ad=0.34p pd=2.68u as=0.34p ps=2.68u w=1u l=0.13u
X186 a_1369_4350# a_1267_5464# a_1267_4350# VDD.t0 sg13_lv_pmos ad=0.38p pd=2.38u as=0.38p ps=2.38u w=2u l=0.13u
X187 VSS.t192 VSS.t193 VSS rppd l=0.5u w=0.5u
X188 VSS.t14 a_2380_2122# a_3009_2844# VSS.t13 sg13_lv_nmos ad=0.34p pd=2.68u as=0.19p ps=1.38u w=1u l=0.13u
X189 a_2907_4350# a_2584_4350# a_2805_4350# VDD.t0 sg13_lv_pmos ad=0.38p pd=2.38u as=0.38p ps=2.38u w=2u l=0.13u
X190 a_1267_1008.t0 RST.t5 VSS.t33 VSS.t32 sg13_lv_nmos ad=0.19p pd=1.38u as=0.34p ps=2.68u w=1u l=0.13u
X191 a_2584_2122# a_1267_2122# VSS.t202 VSS.t47 sg13_lv_nmos ad=0.34p pd=2.68u as=0.34p ps=2.68u w=1u l=0.13u
X192 VSS.t154 VSS.t155 VSS rppd l=0.5u w=0.5u
X193 VSS.t34 VSS.t35 VSS rppd l=0.5u w=0.5u
X194 a_2805_3758# a_1839_3236# VDD.t24 VDD.t0 sg13_lv_pmos ad=0.38p pd=2.38u as=0.68p ps=4.68u w=2u l=0.13u
X195 a_3521_3236# a_3317_3236# VSS.t94 VSS.t93 sg13_lv_nmos ad=0.34p pd=2.68u as=0.19p ps=1.38u w=1u l=0.13u
X196 a_2380_5464# a_1839_5464# VSS.t130 VSS.t53 sg13_lv_nmos ad=0.34p pd=2.68u as=0.34p ps=2.68u w=1u l=0.13u
X197 VDD.t43 a_917_2086.t7 a_1941_3758# VDD.t0 sg13_lv_pmos ad=0.68p pd=4.68u as=0.38p ps=2.38u w=2u l=0.13u
X198 a_1941_1530# a_1839_2122# a_1839_1008.t1 VDD.t3 sg13_lv_pmos ad=0.38p pd=2.38u as=0.38p ps=2.38u w=2u l=0.13u
X199 VDD.t27 a_3317_5464# a_3521_5464# VDD.t6 sg13_lv_pmos ad=0.38p pd=2.38u as=0.38p ps=2.38u w=2u l=0.13u
X200 VSS.t36 VSS.t37 VSS rppd l=0.5u w=0.5u
X201 a_3317_3236# a_2907_3236# VSS.t3 VSS.t2 sg13_lv_nmos ad=0.34p pd=2.68u as=0.34p ps=2.68u w=1u l=0.13u
X202 a_1267_2122# VDD.t53 VDD.t54 VDD.t3 sg13_lv_pmos ad=0.38p pd=2.38u as=0.68p ps=4.68u w=2u l=0.13u
X203 a_917_2086.t0 Vref.t5 VSS.t161 VSS.t69 sg13_lv_nmos ad=0.34p pd=2.68u as=0.34p ps=2.68u w=1u l=0.13u
X204 VSS.t115 VSS.t116 VSS rppd l=0.5u w=0.5u
X205 VSS.t27 VSS.t28 VSS rppd l=0.5u w=0.5u
X206 a_3521_4350# a_3317_4350# VDD.t39 VDD.t0 sg13_lv_pmos ad=0.68p pd=4.68u as=0.38p ps=2.38u w=2u l=0.13u
X207 VSS.t117 VSS.t118 VSS rppd l=0.5u w=0.5u
X208 VSS.t173 a_3317_1008# a_3521_1008# VSS.t172 sg13_lv_nmos ad=0.19p pd=1.38u as=0.19p ps=1.38u w=1u l=0.13u
X209 a_2584_5464# a_1267_5464# VDD.t49 VDD.t6 sg13_lv_pmos ad=0.68p pd=4.68u as=0.68p ps=4.68u w=2u l=0.13u
X210 VDD.t19 a_2380_5464# a_3009_5986# VDD.t6 sg13_lv_pmos ad=0.68p pd=4.68u as=0.38p ps=2.38u w=2u l=0.13u
X211 a_3521_5464# VOUT.t4 VSS rppd l=0.5u w=0.5u
X212 a_3317_4350# a_2907_4350# VDD.t35 VDD.t0 sg13_lv_pmos ad=0.68p pd=4.68u as=0.68p ps=4.68u w=2u l=0.13u
X213 a_3521_3236# a_3317_3236# VDD.t21 VDD.t0 sg13_lv_pmos ad=0.38p pd=2.38u as=0.68p ps=4.68u w=2u l=0.13u
X214 VSS.t42 VSS.t43 VSS rppd l=0.5u w=0.5u
X215 VSS.t40 VSS.t41 VSS rppd l=0.5u w=0.5u
X216 VSS.t104 a_2380_1008# a_3009_1008# VSS.t103 sg13_lv_nmos ad=0.34p pd=2.68u as=0.19p ps=1.38u w=1u l=0.13u
X217 a_1941_2844# a_1839_3236# a_1839_2122# VSS.t50 sg13_lv_nmos ad=0.19p pd=1.38u as=0.19p ps=1.38u w=1u l=0.13u
X218 a_2584_1008# a_1267_1008.t5 VSS.t67 VSS.t66 sg13_lv_nmos ad=0.34p pd=2.68u as=0.34p ps=2.68u w=1u l=0.13u
X219 a_1369_1530# a_1267_2122# a_1267_1008.t1 VDD.t3 sg13_lv_pmos ad=0.38p pd=2.38u as=0.38p ps=2.38u w=2u l=0.13u
X220 VDD.t50 a_3317_2122# a_3521_2122# VDD.t3 sg13_lv_pmos ad=0.38p pd=2.38u as=0.38p ps=2.38u w=2u l=0.13u
X221 a_2907_1008# a_2584_1008# a_2805_1530# VDD.t3 sg13_lv_pmos ad=0.38p pd=2.38u as=0.38p ps=2.38u w=2u l=0.13u
X222 VSS.t124 VSS.t125 VSS rppd l=0.5u w=0.5u
X223 VDD.t8 a_2380_2122# a_3009_2122# VDD.t3 sg13_lv_pmos ad=0.68p pd=4.68u as=0.38p ps=2.38u w=2u l=0.13u
R0 VSS.n201 VSS.n200 21457.7
R1 VSS.n200 VSS.n111 20680.6
R2 VSS.n218 VSS.n25 6169.91
R3 VSS.n218 VSS.n217 4623.55
R4 VSS.n200 VSS.n199 411.603
R5 VSS.t57 VSS.n204 351.786
R6 VSS.t208 VSS.n207 336.762
R7 VSS.t66 VSS.n208 336.726
R8 VSS.t159 VSS.n206 335.56
R9 VSS.n203 VSS.t203 315.526
R10 VSS.n212 VSS.t17 275.459
R11 VSS.n210 VSS.t210 275.459
R12 VSS.n216 VSS.t172 265.442
R13 VSS.t174 VSS.n214 261.601
R14 VSS.t6 VSS.n213 261.601
R15 VSS.t176 VSS.n216 245.41
R16 VSS.t103 VSS.n212 235.393
R17 VSS.t65 VSS.n210 235.393
R18 VSS.n60 VSS.t137 200.773
R19 VSS.t128 VSS.n126 200.773
R20 VSS.t135 VSS.n203 195.327
R21 VSS.t32 VSS.n201 195.327
R22 VSS.n67 VSS.t53 192.486
R23 VSS.t100 VSS.n122 192.486
R24 VSS.t178 VSS.n49 192.386
R25 VSS.n145 VSS.t47 192.386
R26 VSS.t59 VSS.n51 185.083
R27 VSS.n141 VSS.t156 185.083
R28 VSS.t112 VSS.n205 180.733
R29 VSS.n206 VSS.t112 175.292
R30 VSS.t10 VSS.n53 174.034
R31 VSS.n139 VSS.t49 174.034
R32 VSS.n204 VSS.t135 161.471
R33 VSS.n202 VSS.t32 160.7
R34 VSS.t79 VSS.n47 151.935
R35 VSS.n71 VSS.t51 151.935
R36 VSS.n147 VSS.t102 151.935
R37 VSS.t98 VSS.n118 151.935
R38 VSS.n199 VSS.t69 151.935
R39 VSS.t108 VSS.n45 150.95
R40 VSS.n75 VSS.t83 150.95
R41 VSS.n151 VSS.t96 150.95
R42 VSS.t2 VSS.n116 150.95
R43 VSS.n80 VSS.t107 146.41
R44 VSS.t95 VSS.n113 146.41
R45 VSS.n80 VSS.t105 135.359
R46 VSS.n113 VSS.t93 135.359
R47 VSS.t0 VSS.n47 129.834
R48 VSS.n71 VSS.t177 129.834
R49 VSS.n147 VSS.t13 129.834
R50 VSS.t46 VSS.n118 129.834
R51 VSS.t55 VSS.n132 123.424
R52 VSS.n213 VSS.t103 121.37
R53 VSS.n211 VSS.t65 120.633
R54 VSS.n217 VSS.t176 111.395
R55 VSS.n214 VSS.t6 111.353
R56 VSS.n215 VSS.t174 110.617
R57 VSS.t71 VSS.n53 107.736
R58 VSS.n111 VSS.t126 107.736
R59 VSS.n139 VSS.t132 107.736
R60 VSS.n52 VSS.t26 105.555
R61 VSS.t50 VSS.n140 105.555
R62 VSS.t26 VSS.n51 96.6856
R63 VSS.n141 VSS.t50 96.6856
R64 VSS.n60 VSS.t71 95.8024
R65 VSS.t132 VSS.n126 95.8024
R66 VSS.n54 VSS.t126 94.5061
R67 VSS.n138 VSS.t55 94.5061
R68 VSS.t172 VSS.n215 90.5831
R69 VSS.t210 VSS.n209 81.3358
R70 VSS.t17 VSS.n211 80.5664
R71 VSS.n75 VSS.t0 73.6022
R72 VSS.t13 VSS.n116 73.6022
R73 VSS.t177 VSS.n48 72.4066
R74 VSS.n146 VSS.t46 72.4066
R75 VSS.t105 VSS.n25 68.177
R76 VSS.t93 VSS.n33 68.1562
R77 VSS.t83 VSS.n45 68.0773
R78 VSS.n151 VSS.t2 68.0773
R79 VSS.n79 VSS.t108 66.8818
R80 VSS.t96 VSS.n114 66.8818
R81 VSS.t107 VSS.n79 55.832
R82 VSS.n114 VSS.t95 55.832
R83 VSS.n132 VSS.t69 51.6035
R84 VSS.t51 VSS.n68 51.5954
R85 VSS.n121 VSS.t98 51.5954
R86 VSS.n48 VSS.t79 50.3072
R87 VSS.t102 VSS.n146 50.3072
R88 VSS.t203 VSS.n202 40.4996
R89 VSS.n209 VSS.t66 36.2606
R90 VSS.n208 VSS.t208 36.2271
R91 VSS.n54 VSS.t10 28.2077
R92 VSS.t49 VSS.n138 28.2077
R93 VSS.n68 VSS.t178 26.7335
R94 VSS.t47 VSS.n121 26.7335
R95 VSS.t53 VSS.n49 26.6409
R96 VSS.n145 VSS.t100 26.6409
R97 VSS.n221 VSS.n16 23.2647
R98 VSS.n222 VSS.n221 23.2471
R99 VSS.n207 VSS.t159 21.2381
R100 VSS.n205 VSS.t57 20.4662
R101 VSS.n67 VSS.t59 18.4543
R102 VSS.t156 VSS.n122 18.4543
R103 VSS.n221 VSS.n220 18.3543
R104 VSS.t137 VSS.n52 17.158
R105 VSS.n140 VSS.t128 17.158
R106 VSS.n220 VSS.n219 17.001
R107 VSS.n111 VSS.n110 17.0005
R108 VSS.n110 VSS.n53 17.0005
R109 VSS.n110 VSS.n51 17.0005
R110 VSS.n110 VSS.n71 17.0005
R111 VSS.n110 VSS.n47 17.0005
R112 VSS.n110 VSS.n46 17.0005
R113 VSS.n110 VSS.n80 17.0005
R114 VSS.n110 VSS.n16 17.0005
R115 VSS.n201 VSS.n0 17.0005
R116 VSS.n203 VSS.n0 17.0005
R117 VSS.n206 VSS.n0 17.0005
R118 VSS.n210 VSS.n0 17.0005
R119 VSS.n212 VSS.n0 17.0005
R120 VSS.n236 VSS.n0 17.0005
R121 VSS.n216 VSS.n0 17.0005
R122 VSS.n222 VSS.n0 17.0005
R123 VSS.n198 VSS.n133 17.0005
R124 VSS.n199 VSS.n198 17.0005
R125 VSS.n198 VSS.n139 17.0005
R126 VSS.n198 VSS.n141 17.0005
R127 VSS.n198 VSS.n118 17.0005
R128 VSS.n198 VSS.n147 17.0005
R129 VSS.n198 VSS.n150 17.0005
R130 VSS.n198 VSS.n113 17.0005
R131 VSS.n198 VSS.n197 17.0005
R132 VSS.n188 VSS.n187 17.0005
R133 VSS.n187 VSS.n186 17.0005
R134 VSS.n182 VSS.n181 17.0005
R135 VSS.n181 VSS.n180 17.0005
R136 VSS.n61 VSS.t186 15.5174
R137 VSS.n55 VSS.t184 15.5174
R138 VSS.n127 VSS.t182 15.5174
R139 VSS.n135 VSS.t180 15.5174
R140 VSS.n81 VSS.t28 15.3892
R141 VSS.n84 VSS.t37 15.3892
R142 VSS.n1 VSS.t171 15.3892
R143 VSS.n190 VSS.t191 15.3892
R144 VSS.n193 VSS.t90 15.3892
R145 VSS.n37 VSS.t24 15.3864
R146 VSS.n34 VSS.t15 15.3864
R147 VSS.n13 VSS.t119 15.3864
R148 VSS.n20 VSS.t42 15.3864
R149 VSS.n17 VSS.t117 15.3864
R150 VSS.n103 VSS.t148 15.2062
R151 VSS.n106 VSS.t113 15.2062
R152 VSS.n98 VSS.t18 15.2062
R153 VSS.n101 VSS.t34 15.2062
R154 VSS.n93 VSS.t149 15.2062
R155 VSS.n96 VSS.t114 15.2062
R156 VSS.n89 VSS.t19 15.2062
R157 VSS.n92 VSS.t35 15.2062
R158 VSS.n8 VSS.t77 15.2062
R159 VSS.n11 VSS.t198 15.2062
R160 VSS.n4 VSS.t78 15.2062
R161 VSS.n7 VSS.t199 15.2062
R162 VSS.n173 VSS.t63 15.2062
R163 VSS.n176 VSS.t91 15.2062
R164 VSS.n168 VSS.t75 15.2062
R165 VSS.n171 VSS.t144 15.2062
R166 VSS.n160 VSS.t64 15.2062
R167 VSS.n163 VSS.t92 15.2062
R168 VSS.n156 VSS.t76 15.2062
R169 VSS.n159 VSS.t145 15.2062
R170 VSS.n37 VSS.t194 15.0005
R171 VSS.n38 VSS.t4 15.0005
R172 VSS.n39 VSS.t188 15.0005
R173 VSS.n34 VSS.t20 15.0005
R174 VSS.n35 VSS.t152 15.0005
R175 VSS.n36 VSS.t139 15.0005
R176 VSS.n103 VSS.t25 15.0005
R177 VSS.n104 VSS.t195 15.0005
R178 VSS.n105 VSS.t5 15.0005
R179 VSS.n106 VSS.t189 15.0005
R180 VSS.n98 VSS.t16 15.0005
R181 VSS.n99 VSS.t21 15.0005
R182 VSS.n100 VSS.t153 15.0005
R183 VSS.n101 VSS.t140 15.0005
R184 VSS.n93 VSS.t36 15.0005
R185 VSS.n94 VSS.t40 15.0005
R186 VSS.n95 VSS.t38 15.0005
R187 VSS.n96 VSS.t81 15.0005
R188 VSS.n89 VSS.t27 15.0005
R189 VSS.n91 VSS.t166 15.0005
R190 VSS.n90 VSS.t44 15.0005
R191 VSS.n92 VSS.t73 15.0005
R192 VSS.n83 VSS.t74 15.0005
R193 VSS.n82 VSS.t167 15.0005
R194 VSS.n81 VSS.t45 15.0005
R195 VSS.n84 VSS.t41 15.0005
R196 VSS.n85 VSS.t39 15.0005
R197 VSS.n86 VSS.t82 15.0005
R198 VSS.n13 VSS.t200 15.0005
R199 VSS.n14 VSS.t146 15.0005
R200 VSS.n15 VSS.t11 15.0005
R201 VSS.n8 VSS.t120 15.0005
R202 VSS.n9 VSS.t201 15.0005
R203 VSS.n10 VSS.t147 15.0005
R204 VSS.n11 VSS.t12 15.0005
R205 VSS.n4 VSS.t170 15.0005
R206 VSS.n6 VSS.t115 15.0005
R207 VSS.n5 VSS.t124 15.0005
R208 VSS.n7 VSS.t162 15.0005
R209 VSS.n3 VSS.t163 15.0005
R210 VSS.n2 VSS.t116 15.0005
R211 VSS.n1 VSS.t125 15.0005
R212 VSS.n20 VSS.t22 15.0005
R213 VSS.n21 VSS.t87 15.0005
R214 VSS.n22 VSS.t150 15.0005
R215 VSS.n17 VSS.t192 15.0005
R216 VSS.n18 VSS.t8 15.0005
R217 VSS.n19 VSS.t30 15.0005
R218 VSS.n173 VSS.t43 15.0005
R219 VSS.n174 VSS.t23 15.0005
R220 VSS.n175 VSS.t88 15.0005
R221 VSS.n176 VSS.t151 15.0005
R222 VSS.n168 VSS.t118 15.0005
R223 VSS.n169 VSS.t193 15.0005
R224 VSS.n170 VSS.t9 15.0005
R225 VSS.n171 VSS.t31 15.0005
R226 VSS.n160 VSS.t89 15.0005
R227 VSS.n161 VSS.t168 15.0005
R228 VSS.n162 VSS.t122 15.0005
R229 VSS.n163 VSS.t196 15.0005
R230 VSS.n156 VSS.t190 15.0005
R231 VSS.n158 VSS.t164 15.0005
R232 VSS.n157 VSS.t85 15.0005
R233 VSS.n159 VSS.t154 15.0005
R234 VSS.n192 VSS.t155 15.0005
R235 VSS.n191 VSS.t165 15.0005
R236 VSS.n190 VSS.t86 15.0005
R237 VSS.n193 VSS.t169 15.0005
R238 VSS.n194 VSS.t123 15.0005
R239 VSS.n195 VSS.t197 15.0005
R240 VSS.n218 VSS.n33 13.3522
R241 VSS.n218 VSS.n32 8.501
R242 VSS.n218 VSS.n31 8.501
R243 VSS.n218 VSS.n30 8.501
R244 VSS.n218 VSS.n29 8.501
R245 VSS.n218 VSS.n28 8.501
R246 VSS.n218 VSS.n27 8.501
R247 VSS.n218 VSS.n26 8.501
R248 VSS.n219 VSS.n218 8.501
R249 VSS.n189 VSS.n155 8.4798
R250 VSS.n185 VSS.n165 8.4798
R251 VSS.n184 VSS.n166 8.4798
R252 VSS.n183 VSS.n167 8.4798
R253 VSS.n179 VSS.n24 8.4798
R254 VSS.n43 VSS.t141 6.08241
R255 VSS.n77 VSS.t143 6.08241
R256 VSS.n76 VSS.t121 6.08241
R257 VSS.n73 VSS.t1 6.08241
R258 VSS.n72 VSS.t52 6.08241
R259 VSS.n69 VSS.t179 6.08241
R260 VSS.n65 VSS.t54 6.08241
R261 VSS.n64 VSS.t61 6.08241
R262 VSS.n58 VSS.t80 6.08241
R263 VSS.n153 VSS.t205 6.08241
R264 VSS.n152 VSS.t206 6.08241
R265 VSS.n148 VSS.t29 6.08241
R266 VSS.n149 VSS.t14 6.08241
R267 VSS.n119 VSS.t110 6.08241
R268 VSS.n143 VSS.t202 6.08241
R269 VSS.n142 VSS.t111 6.08241
R270 VSS.n124 VSS.t158 6.08241
R271 VSS.n130 VSS.t134 6.08241
R272 VSS.n134 VSS.t161 6.08241
R273 VSS.n43 VSS.t106 6.08198
R274 VSS.n77 VSS.t109 6.08198
R275 VSS.n76 VSS.t84 6.08198
R276 VSS.n73 VSS.t68 6.08198
R277 VSS.n72 VSS.t131 6.08198
R278 VSS.n69 VSS.t204 6.08198
R279 VSS.n65 VSS.t130 6.08198
R280 VSS.n64 VSS.t60 6.08198
R281 VSS.n62 VSS.t138 6.08198
R282 VSS.n58 VSS.t72 6.08198
R283 VSS.n56 VSS.t127 6.08198
R284 VSS.n231 VSS.t173 6.08198
R285 VSS.n233 VSS.t175 6.08198
R286 VSS.n235 VSS.t7 6.08198
R287 VSS.n237 VSS.t104 6.08198
R288 VSS.n239 VSS.t211 6.08198
R289 VSS.n241 VSS.t67 6.08198
R290 VSS.n243 VSS.t209 6.08198
R291 VSS.n245 VSS.t160 6.08198
R292 VSS.n247 VSS.t58 6.08198
R293 VSS.n249 VSS.t136 6.08198
R294 VSS.n251 VSS.t33 6.08198
R295 VSS.n153 VSS.t94 6.08198
R296 VSS.n152 VSS.t97 6.08198
R297 VSS.n148 VSS.t3 6.08198
R298 VSS.n149 VSS.t62 6.08198
R299 VSS.n119 VSS.t99 6.08198
R300 VSS.n143 VSS.t48 6.08198
R301 VSS.n142 VSS.t101 6.08198
R302 VSS.n124 VSS.t157 6.08198
R303 VSS.n128 VSS.t129 6.08198
R304 VSS.n130 VSS.t133 6.08198
R305 VSS.n136 VSS.t56 6.08198
R306 VSS.n134 VSS.t70 6.08198
R307 VSS.n110 VSS.n50 5.6302
R308 VSS.n110 VSS.n70 5.6302
R309 VSS.n110 VSS.n78 5.6302
R310 VSS.n110 VSS.n44 5.6302
R311 VSS.n110 VSS.n41 5.6302
R312 VSS.n242 VSS.n0 5.6302
R313 VSS.n240 VSS.n0 5.6302
R314 VSS.n234 VSS.n0 5.6302