* PEX produced on Sun Mar 22 05:07:16 PM CET 2026 using /foss/tools/sak/sak-pex.sh with m=2 and s=1
* NGSPICE file created from LIF_neuron.ext - technology: ihp-sg13g2

.subckt LIF_neuron VDD Vx MEM RST SPIKE VSS Vref COMP
X0 VSS VSS VSS rppd l=0.5u w=0.5u
X1 VSS a_2538_4709# a_2130_4709# VSS sg13_lv_nmos ad=0.34p pd=2.68u as=0.34p ps=2.68u w=1u l=0.13u
X2 a_3521_9195# a_3317_9195# VSS VSS sg13_lv_nmos ad=0.19p pd=1.38u as=0.34p ps=2.68u w=1u l=0.13u
X3 VDD a_1071_4709# a_1003_4745# VDD sg13_lv_pmos ad=0.38p pd=2.38u as=0.68p ps=4.68u w=2u l=0.13u
X4 VSS a_2769_4709# a_2538_4709# VSS sg13_lv_nmos ad=0.19p pd=1.38u as=0.34p ps=2.68u w=1u l=0.13u
X5 VSS a_2130_4709# SPIKE VSS sg13_lv_nmos ad=0.19p pd=1.38u as=0.34p ps=2.68u w=1u l=0.13u
X6 a_3521_6967# a_3317_6967# VSS VSS sg13_lv_nmos ad=0.34p pd=2.68u as=0.19p ps=1.38u w=1u l=0.13u
X7 VSS a_3545_4709# a_3207_4709# VSS sg13_lv_nmos ad=0.34p pd=2.68u as=0.34p ps=2.68u w=1u l=0.65u
X8 VSS VSS VSS rppd l=0.5u w=0.5u
X9 VSS VSS VSS rppd l=0.5u w=0.5u
X10 a_1369_6967# a_1267_8081# a_1267_6967# VDD sg13_lv_pmos ad=0.38p pd=2.38u as=0.38p ps=2.38u w=2u l=0.13u
X11 VDD VDD VSS rhigh l=0.96u w=0.5u
X12 VDD a_917_8508# a_1369_9195# VDD sg13_lv_pmos ad=0.68p pd=4.68u as=0.38p ps=2.38u w=2u l=0.13u
X13 a_3317_6967# a_2907_6967# VSS VSS sg13_lv_nmos ad=0.34p pd=2.68u as=0.34p ps=2.68u w=1u l=0.13u
X14 a_2907_6967# a_2584_6967# a_2805_6967# VDD sg13_lv_pmos ad=0.38p pd=2.38u as=0.38p ps=2.38u w=2u l=0.13u
X15 a_2907_10309# a_2584_10309# a_2805_10831# VDD sg13_lv_pmos ad=0.38p pd=2.38u as=0.38p ps=2.38u w=2u l=0.13u
X16 a_1369_10309# a_1267_5853# a_1267_10309# VSS sg13_lv_nmos ad=0.19p pd=1.38u as=0.19p ps=1.38u w=1u l=0.13u
X17 a_3009_9195# a_1267_9195# a_2907_9195# VDD sg13_lv_pmos ad=0.38p pd=2.38u as=0.38p ps=2.38u w=2u l=0.13u
X18 a_1839_8081# VDD VDD VDD sg13_lv_pmos ad=0.38p pd=2.38u as=0.68p ps=4.68u w=2u l=0.13u
X19 a_1267_5853# a_1003_4745# VSS VSS sg13_lv_nmos ad=0.19p pd=1.38u as=0.34p ps=2.68u w=1u l=0.13u
X20 a_3521_8081# MEM VSS rppd l=0.5u w=0.5u
X21 a_1369_8081# a_1267_9195# a_1267_8081# VSS sg13_lv_nmos ad=0.19p pd=1.38u as=0.19p ps=1.38u w=1u l=0.13u
X22 VDD COMP a_4221_4709# VDD sg13_lv_pmos ad=0.68p pd=4.68u as=0.68p ps=4.68u w=2u l=0.65u
X23 VDD a_3883_4709# a_3545_4709# VDD sg13_lv_pmos ad=0.68p pd=4.68u as=0.68p ps=4.68u w=2u l=0.65u
X24 a_2907_8081# a_1267_8081# a_2805_8081# VSS sg13_lv_nmos ad=0.19p pd=1.38u as=0.19p ps=1.38u w=1u l=0.13u
X25 VSS RST a_1692_4709# VSS sg13_lv_nmos ad=0.34p pd=2.68u as=0.19p ps=1.38u w=1u l=0.13u
X26 VSS VSS VSS rppd l=0.5u w=0.5u
X27 VSS a_4828_5366# COMP VSS sg13_lv_nmos ad=0.19p pd=1.38u as=0.19p ps=1.38u w=1u l=0.13u
X28 a_3521_10309# a_3317_10309# VSS VSS sg13_lv_nmos ad=0.19p pd=1.38u as=0.34p ps=2.68u w=1u l=0.13u
X29 a_3521_6967# a_3317_6967# VDD VDD sg13_lv_pmos ad=0.68p pd=4.68u as=0.38p ps=2.38u w=2u l=0.13u
X30 VSS VSS VSS rppd l=0.5u w=0.5u
X31 a_2584_10309# a_1267_10309# VSS VSS sg13_lv_nmos ad=0.34p pd=2.68u as=0.34p ps=2.68u w=1u l=0.13u
X32 VDD a_2538_4709# a_2130_4709# VDD sg13_lv_pmos ad=0.68p pd=4.68u as=0.68p ps=4.68u w=2u l=0.13u
X33 VSS VSS VSS rppd l=0.5u w=0.5u
X34 a_3317_6967# a_2907_6967# VDD VDD sg13_lv_pmos ad=0.68p pd=4.68u as=0.68p ps=4.68u w=2u l=0.13u
X35 VSS a_3317_5853# a_3521_5853# VSS sg13_lv_nmos ad=0.19p pd=1.38u as=0.19p ps=1.38u w=1u l=0.13u
X36 a_1839_9195# VSS VSS VSS sg13_lv_nmos ad=0.19p pd=1.38u as=0.34p ps=2.68u w=1u l=0.13u
X37 a_3521_8081# a_3317_8081# VSS VSS sg13_lv_nmos ad=0.34p pd=2.68u as=0.19p ps=1.38u w=1u l=0.13u
X38 VDD a_2130_4709# SPIKE VDD sg13_lv_pmos ad=0.38p pd=2.38u as=0.68p ps=4.68u w=2u l=0.13u
X39 a_1267_8081# VDD VDD VDD sg13_lv_pmos ad=0.38p pd=2.38u as=0.68p ps=4.68u w=2u l=0.13u
X40 a_2805_10309# a_1839_10309# VSS VSS sg13_lv_nmos ad=0.19p pd=1.38u as=0.34p ps=2.68u w=1u l=0.13u
X41 a_1003_4745# a_1071_4709# VSS VSS sg13_lv_nmos ad=0.19p pd=1.38u as=0.19p ps=1.38u w=1u l=0.13u
X42 VSS a_2380_5853# a_3009_5853# VSS sg13_lv_nmos ad=0.34p pd=2.68u as=0.19p ps=1.38u w=1u l=0.13u
X43 a_3317_8081# a_2907_8081# VSS VSS sg13_lv_nmos ad=0.34p pd=2.68u as=0.34p ps=2.68u w=1u l=0.13u
X44 a_2584_5853# a_1267_5853# VSS VSS sg13_lv_nmos ad=0.34p pd=2.68u as=0.34p ps=2.68u w=1u l=0.13u
X45 VSS VSS VSS rppd l=0.5u w=0.5u
X46 VDD a_917_8508# a_1369_6375# VDD sg13_lv_pmos ad=0.68p pd=4.68u as=0.38p ps=2.38u w=2u l=0.13u
X47 VSS VSS VSS rppd l=0.5u w=0.5u
X48 a_2380_9195# a_1839_9195# VDD VDD sg13_lv_pmos ad=0.68p pd=4.68u as=0.68p ps=4.68u w=2u l=0.13u
X49 a_3009_6375# a_1267_5853# a_2907_5853# VDD sg13_lv_pmos ad=0.38p pd=2.38u as=0.38p ps=2.38u w=2u l=0.13u
X50 VSS VSS VSS rppd l=0.5u w=0.5u
X51 a_1839_10309# VDD VDD VDD sg13_lv_pmos ad=0.38p pd=2.38u as=0.68p ps=4.68u w=2u l=0.13u
X52 VSS MEM a_4828_5366# VSS sg13_lv_nmos ad=0.34p pd=2.68u as=0.19p ps=1.38u w=1u l=0.13u
X53 VSS VSS VSS rppd l=0.5u w=0.5u
X54 VDD a_3317_8081# a_3521_8081# VDD sg13_lv_pmos ad=0.38p pd=2.38u as=0.38p ps=2.38u w=2u l=0.13u
X55 a_1692_4709# RST a_1820_4745# VDD sg13_lv_pmos ad=0.68p pd=4.68u as=0.38p ps=2.38u w=2u l=0.13u
X56 a_1267_9195# VSS VSS VSS sg13_lv_nmos ad=0.19p pd=1.38u as=0.34p ps=2.68u w=1u l=0.13u
X57 VSS VSS VSS rppd l=0.5u w=0.5u
X58 a_2907_10309# a_1267_10309# a_2805_10309# VSS sg13_lv_nmos ad=0.19p pd=1.38u as=0.19p ps=1.38u w=1u l=0.13u
X59 VSS VSS VSS rppd l=0.5u w=0.5u
X60 VDD a_917_8508# a_1369_10831# VDD sg13_lv_pmos ad=0.68p pd=4.68u as=0.38p ps=2.38u w=2u l=0.13u
X61 VSS VX a_1369_7689# VSS sg13_lv_nmos ad=0.34p pd=2.68u as=0.19p ps=1.38u w=1u l=0.13u
X62 VDD a_2380_8081# a_3009_8603# VDD sg13_lv_pmos ad=0.68p pd=4.68u as=0.38p ps=2.38u w=2u l=0.13u
X63 VDD COMP a_2769_4709# VDD sg13_lv_pmos ad=0.68p pd=4.68u as=0.38p ps=2.38u w=2u l=0.13u
X64 a_2584_8081# a_1267_8081# VDD VDD sg13_lv_pmos ad=0.68p pd=4.68u as=0.68p ps=4.68u w=2u l=0.13u
X65 a_3009_7689# a_2584_6967# a_2907_6967# VSS sg13_lv_nmos ad=0.19p pd=1.38u as=0.19p ps=1.38u w=1u l=0.13u
X66 VDD VDD VSS rhigh l=0.96u w=0.5u
X67 a_3521_8081# MEM VSS rppd l=0.5u w=0.5u
X68 a_1941_5853# a_1839_6967# a_1839_5853# VSS sg13_lv_nmos ad=0.19p pd=1.38u as=0.19p ps=1.38u w=1u l=0.13u
X69 VSS a_3317_9195# a_3521_9195# VSS sg13_lv_nmos ad=0.19p pd=1.38u as=0.19p ps=1.38u w=1u l=0.13u
X70 a_917_8508# a_917_8508# VDD VDD sg13_lv_pmos ad=0.68p pd=4.68u as=0.68p ps=4.68u w=2u l=0.13u
X71 a_1003_4745# a_1071_4709# VDD VDD sg13_lv_pmos ad=0.38p pd=2.38u as=0.38p ps=2.38u w=2u l=0.13u
X72 SPIKE a_2130_4709# VSS VSS sg13_lv_nmos ad=0.19p pd=1.38u as=0.19p ps=1.38u w=1u l=0.13u
X73 a_2380_5853# a_1839_5853# VDD VDD sg13_lv_pmos ad=0.68p pd=4.68u as=0.68p ps=4.68u w=2u l=0.13u
X74 VDD a_3317_10309# a_3521_10309# VDD sg13_lv_pmos ad=0.38p pd=2.38u as=0.38p ps=2.38u w=2u l=0.13u
X75 a_2584_9195# a_1267_9195# VSS VSS sg13_lv_nmos ad=0.34p pd=2.68u as=0.34p ps=2.68u w=1u l=0.13u
X76 VSS a_2380_9195# a_3009_9917# VSS sg13_lv_nmos ad=0.34p pd=2.68u as=0.19p ps=1.38u w=1u l=0.13u
X77 VSS VSS VSS rppd l=0.5u w=0.5u
X78 VSS VSS VSS rppd l=0.5u w=0.5u
X79 VDD VDD VSS rhigh l=4u w=0.5u
X80 VDD a_917_8508# a_1369_6967# VDD sg13_lv_pmos ad=0.68p pd=4.68u as=0.38p ps=2.38u w=2u l=0.13u
X81 a_2804_11753# a_3837_11577# VSS rhigh l=4u w=0.5u
X82 a_3009_6967# a_1267_6967# a_2907_6967# VDD sg13_lv_pmos ad=0.38p pd=2.38u as=0.38p ps=2.38u w=2u l=0.13u
X83 VSS a_4221_4709# a_3883_4709# VSS sg13_lv_nmos ad=0.34p pd=2.68u as=0.34p ps=2.68u w=1u l=0.65u
X84 a_1918_11577# a_885_11577# VSS rhigh l=4u w=0.5u
X85 VSS VSS VSS rppd l=0.5u w=0.5u
X86 a_2805_9195# a_1839_9195# VDD VDD sg13_lv_pmos ad=0.38p pd=2.38u as=0.68p ps=4.68u w=2u l=0.13u
X87 a_1941_8603# a_1839_9195# a_1839_8081# VDD sg13_lv_pmos ad=0.38p pd=2.38u as=0.38p ps=2.38u w=2u l=0.13u
X88 a_1369_5853# a_1267_6967# a_1267_5853# VSS sg13_lv_nmos ad=0.19p pd=1.38u as=0.19p ps=1.38u w=1u l=0.13u
X89 VDD a_917_6931# a_1941_9195# VDD sg13_lv_pmos ad=0.68p pd=4.68u as=0.38p ps=2.38u w=2u l=0.13u
X90 VSS VX a_1369_8081# VSS sg13_lv_nmos ad=0.34p pd=2.68u as=0.19p ps=1.38u w=1u l=0.13u
X91 a_2907_5853# a_1267_5853# a_2805_5853# VSS sg13_lv_nmos ad=0.19p pd=1.38u as=0.19p ps=1.38u w=1u l=0.13u
X92 a_3009_8081# a_2584_8081# a_2907_8081# VSS sg13_lv_nmos ad=0.19p pd=1.38u as=0.19p ps=1.38u w=1u l=0.13u
X93 a_2380_6967# a_1839_6967# VSS VSS sg13_lv_nmos ad=0.34p pd=2.68u as=0.34p ps=2.68u w=1u l=0.13u
X94 VSS VSS VSS rppd l=0.5u w=0.5u
X95 a_3317_10309# a_2907_10309# VDD VDD sg13_lv_pmos ad=0.68p pd=4.68u as=0.68p ps=4.68u w=2u l=0.13u
X96 a_1839_10309# a_1003_4745# VSS VSS sg13_lv_nmos ad=0.19p pd=1.38u as=0.34p ps=2.68u w=1u l=0.13u
X97 VDD VDD VSS rhigh l=0.96u w=0.5u
X98 a_2380_10309# a_1839_10309# VDD VDD sg13_lv_pmos ad=0.68p pd=4.68u as=0.68p ps=4.68u w=2u l=0.13u
X99 VSS VSS VSS rppd l=0.5u w=0.5u
X100 a_3009_10831# a_1267_10309# a_2907_10309# VDD sg13_lv_pmos ad=0.38p pd=2.38u as=0.38p ps=2.38u w=2u l=0.13u
X101 VSS VX a_1369_10309# VSS sg13_lv_nmos ad=0.34p pd=2.68u as=0.19p ps=1.38u w=1u l=0.13u
X102 a_1941_9917# a_1839_10309# a_1839_9195# VSS sg13_lv_nmos ad=0.19p pd=1.38u as=0.19p ps=1.38u w=1u l=0.13u
X103 a_3521_9195# a_3317_9195# VDD VDD sg13_lv_pmos ad=0.38p pd=2.38u as=0.68p ps=4.68u w=2u l=0.13u
X104 VSS VSS VSS rppd l=0.5u w=0.5u
X105 SPIKE a_2130_4709# VDD VDD sg13_lv_pmos ad=0.38p pd=2.38u as=0.38p ps=2.38u w=2u l=0.13u
X106 a_3521_5853# a_3317_5853# VSS VSS sg13_lv_nmos ad=0.34p pd=2.68u as=0.19p ps=1.38u w=1u l=0.13u
X107 a_1369_8603# a_1267_9195# a_1267_8081# VDD sg13_lv_pmos ad=0.38p pd=2.38u as=0.38p ps=2.38u w=2u l=0.13u
X108 VSS VSS VSS rppd l=0.5u w=0.5u
X109 a_3317_5853# a_2907_5853# VSS VSS sg13_lv_nmos ad=0.34p pd=2.68u as=0.34p ps=2.68u w=1u l=0.13u
X110 VDD VDD VSS rhigh l=4u w=0.5u
X111 a_3984_11577# MEM VSS rhigh l=4u w=0.5u
X112 a_2907_8081# a_2584_8081# a_2805_8603# VDD sg13_lv_pmos ad=0.38p pd=2.38u as=0.38p ps=2.38u w=2u l=0.13u
X113 VSS a_1071_4709# a_1003_4745# VSS sg13_lv_nmos ad=0.34p pd=2.68u as=0.19p ps=1.38u w=1u l=0.13u
X114 a_3521_9195# MEM VSS rppd l=0.5u w=0.5u
X115 a_2380_6967# a_1839_6967# VDD VDD sg13_lv_pmos ad=0.68p pd=4.68u as=0.68p ps=4.68u w=2u l=0.13u
X116 VSS VSS VSS rppd l=0.5u w=0.5u
X117 VSS a_3317_10309# a_3521_10309# VSS sg13_lv_nmos ad=0.19p pd=1.38u as=0.19p ps=1.38u w=1u l=0.13u
X118 VSS VSS VSS rppd l=0.5u w=0.5u
X119 a_2805_6375# a_1839_5853# VDD VDD sg13_lv_pmos ad=0.38p pd=2.38u as=0.68p ps=4.68u w=2u l=0.13u
X120 a_2380_8081# a_1839_8081# VSS VSS sg13_lv_nmos ad=0.34p pd=2.68u as=0.34p ps=2.68u w=1u l=0.13u
X121 VSS VSS VSS rppd l=0.5u w=0.5u
X122 VDD a_917_6931# a_1941_6375# VDD sg13_lv_pmos ad=0.68p pd=4.68u as=0.38p ps=2.38u w=2u l=0.13u
X123 VSS VSS VSS rppd l=0.5u w=0.5u
X124 VDD VDD VSS rhigh l=4u w=0.5u
X125 VX a_1771_11577# VSS rhigh l=4u w=0.5u
X126 a_1369_9917# a_1267_10309# a_1267_9195# VSS sg13_lv_nmos ad=0.19p pd=1.38u as=0.19p ps=1.38u w=1u l=0.13u
X127 a_3521_8081# a_3317_8081# VDD VDD sg13_lv_pmos ad=0.68p pd=4.68u as=0.38p ps=2.38u w=2u l=0.13u
X128 VSS a_3207_4709# a_2840_5276# VSS sg13_lv_nmos ad=0.34p pd=2.68u as=0.34p ps=2.68u w=1u l=0.65u
X129 a_2907_9195# a_1267_9195# a_2805_9917# VSS sg13_lv_nmos ad=0.19p pd=1.38u as=0.19p ps=1.38u w=1u l=0.13u
X130 a_3317_8081# a_2907_8081# VDD VDD sg13_lv_pmos ad=0.68p pd=4.68u as=0.68p ps=4.68u w=2u l=0.13u
X131 VSS VSS VSS rppd l=0.5u w=0.5u
X132 VDD a_2769_4709# a_2538_4709# VDD sg13_lv_pmos ad=0.38p pd=2.38u as=0.68p ps=4.68u w=2u l=0.13u
X133 a_2805_7689# a_1839_6967# VSS VSS sg13_lv_nmos ad=0.19p pd=1.38u as=0.34p ps=2.68u w=1u l=0.13u
X134 a_3521_5853# a_3317_5853# VDD VDD sg13_lv_pmos ad=0.38p pd=2.38u as=0.68p ps=4.68u w=2u l=0.13u
X135 a_1941_10831# a_1839_5853# a_1839_10309# VDD sg13_lv_pmos ad=0.38p pd=2.38u as=0.38p ps=2.38u w=2u l=0.13u
X136 a_3317_10309# a_2907_10309# VSS VSS sg13_lv_nmos ad=0.34p pd=2.68u as=0.34p ps=2.68u w=1u l=0.13u
X137 a_1839_9195# VDD VDD VDD sg13_lv_pmos ad=0.38p pd=2.38u as=0.68p ps=4.68u w=2u l=0.13u
X138 VSS VSS VSS rppd l=0.5u w=0.5u
X139 VSS VREF a_1941_7689# VSS sg13_lv_nmos ad=0.34p pd=2.68u as=0.19p ps=1.38u w=1u l=0.13u
X140 VSS VSS VSS rppd l=0.5u w=0.5u
X141 VDD a_3545_4709# a_3207_4709# VDD sg13_lv_pmos ad=0.68p pd=4.68u as=0.68p ps=4.68u w=2u l=0.65u
X142 VDD VDD VSS rhigh l=4u w=0.5u
X143 a_2380_10309# a_1839_10309# VSS VSS sg13_lv_nmos ad=0.34p pd=2.68u as=0.34p ps=2.68u w=1u l=0.13u
X144 a_3521_9195# a_3317_9195# VSS VSS sg13_lv_nmos ad=0.34p pd=2.68u as=0.19p ps=1.38u w=1u l=0.13u
X145 VDD a_1071_4709# a_1003_4745# VDD sg13_lv_pmos ad=0.68p pd=4.68u as=0.38p ps=2.38u w=2u l=0.13u
X146 VSS a_2130_4709# SPIKE VSS sg13_lv_nmos ad=0.34p pd=2.68u as=0.19p ps=1.38u w=1u l=0.13u
X147 a_3009_10309# a_2584_10309# a_2907_10309# VSS sg13_lv_nmos ad=0.19p pd=1.38u as=0.19p ps=1.38u w=1u l=0.13u
X148 a_3317_9195# a_2907_9195# VSS VSS sg13_lv_nmos ad=0.34p pd=2.68u as=0.34p ps=2.68u w=1u l=0.13u
X149 VSS VSS VSS rppd l=0.5u w=0.5u
X150 a_2897_5460# a_2840_5276# VSS VSS sg13_lv_nmos ad=0.19p pd=1.38u as=0.19p ps=1.38u w=1u l=0.13u
X151 VDD VDD VSS rhigh l=0.96u w=0.5u
X152 VSS VSS VSS rppd l=0.5u w=0.5u
X153 a_3521_6967# a_3317_6967# VSS VSS sg13_lv_nmos ad=0.19p pd=1.38u as=0.34p ps=2.68u w=1u l=0.13u
X154 a_2805_6967# a_1839_6967# VDD VDD sg13_lv_pmos ad=0.38p pd=2.38u as=0.68p ps=4.68u w=2u l=0.13u
X155 VSS VSS VSS rppd l=0.5u w=0.5u
X156 a_1267_9195# VDD VDD VDD sg13_lv_pmos ad=0.38p pd=2.38u as=0.68p ps=4.68u w=2u l=0.13u
X157 VDD a_917_6931# a_1941_6967# VDD sg13_lv_pmos ad=0.68p pd=4.68u as=0.38p ps=2.38u w=2u l=0.13u
X158 VSS VX a_1369_5853# VSS sg13_lv_nmos ad=0.34p pd=2.68u as=0.19p ps=1.38u w=1u l=0.13u
X159 VDD a_2380_10309# a_3009_10831# VDD sg13_lv_pmos ad=0.68p pd=4.68u as=0.38p ps=2.38u w=2u l=0.13u
X160 a_3009_5853# a_2584_5853# a_2907_5853# VSS sg13_lv_nmos ad=0.19p pd=1.38u as=0.19p ps=1.38u w=1u l=0.13u
X161 a_3521_10309# a_3317_10309# VDD VDD sg13_lv_pmos ad=0.68p pd=4.68u as=0.38p ps=2.38u w=2u l=0.13u
X162 a_3521_9195# MEM VSS rppd l=0.5u w=0.5u
X163 a_2805_8081# a_1839_8081# VSS VSS sg13_lv_nmos ad=0.19p pd=1.38u as=0.34p ps=2.68u w=1u l=0.13u
X164 VSS VREF a_1941_8081# VSS sg13_lv_nmos ad=0.34p pd=2.68u as=0.19p ps=1.38u w=1u l=0.13u
X165 VSS a_1692_4709# a_1479_4709# VSS sg13_lv_nmos ad=0.19p pd=1.38u as=0.34p ps=2.68u w=1u l=0.13u
X166 a_1839_5853# VDD VDD VDD sg13_lv_pmos ad=0.38p pd=2.38u as=0.68p ps=4.68u w=2u l=0.13u
X167 a_1267_10309# VDD VDD VDD sg13_lv_pmos ad=0.38p pd=2.38u as=0.68p ps=4.68u w=2u l=0.13u
X168 a_3521_5853# MEM VSS rppd l=0.5u w=0.5u
X169 VSS VSS VSS rppd l=0.5u w=0.5u
X170 a_3521_6967# a_3317_6967# VDD VDD sg13_lv_pmos ad=0.38p pd=2.38u as=0.68p ps=4.68u w=2u l=0.13u
X171 VDD a_3317_9195# a_3521_9195# VDD sg13_lv_pmos ad=0.38p pd=2.38u as=0.38p ps=2.38u w=2u l=0.13u
X172 VDD a_2130_4709# SPIKE VDD sg13_lv_pmos ad=0.68p pd=4.68u as=0.38p ps=2.38u w=2u l=0.13u
X173 VSS a_3883_4709# a_3545_4709# VSS sg13_lv_nmos ad=0.34p pd=2.68u as=0.34p ps=2.68u w=1u l=0.65u
X174 VDD a_917_8508# a_1369_8603# VDD sg13_lv_pmos ad=0.68p pd=4.68u as=0.38p ps=2.38u w=2u l=0.13u
X175 VSS VSS VSS rppd l=0.5u w=0.5u
X176 VSS COMP a_4221_4709# VSS sg13_lv_nmos ad=0.34p pd=2.68u as=0.34p ps=2.68u w=1u l=0.65u
X177 VSS VSS VSS rppd l=0.5u w=0.5u
X178 a_3009_8603# a_1267_8081# a_2907_8081# VDD sg13_lv_pmos ad=0.38p pd=2.38u as=0.38p ps=2.38u w=2u l=0.13u
X179 a_3521_8081# a_3317_8081# VSS VSS sg13_lv_nmos ad=0.19p pd=1.38u as=0.34p ps=2.68u w=1u l=0.13u
X180 a_1941_10309# a_1839_5853# a_1839_10309# VSS sg13_lv_nmos ad=0.19p pd=1.38u as=0.19p ps=1.38u w=1u l=0.13u
X181 VDD a_2380_9195# a_3009_9195# VDD sg13_lv_pmos ad=0.68p pd=4.68u as=0.38p ps=2.38u w=2u l=0.13u
X182 a_2584_9195# a_1267_9195# VDD VDD sg13_lv_pmos ad=0.68p pd=4.68u as=0.68p ps=4.68u w=2u l=0.13u
X183 a_1839_6967# VSS VSS VSS sg13_lv_nmos ad=0.19p pd=1.38u as=0.34p ps=2.68u w=1u l=0.13u
X184 COMP a_4828_5366# VDD VDD sg13_lv_pmos ad=0.38p pd=2.38u as=0.68p ps=4.68u w=2u l=0.13u
X185 a_2951_11577# a_3837_11577# VSS rhigh l=4u w=0.5u
X186 a_2380_5853# a_1839_5853# VSS VSS sg13_lv_nmos ad=0.34p pd=2.68u as=0.34p ps=2.68u w=1u l=0.13u
X187 VSS VSS VSS rppd l=0.5u w=0.5u
X188 a_1267_5853# VDD VDD VDD sg13_lv_pmos ad=0.38p pd=2.38u as=0.68p ps=4.68u w=2u l=0.13u
X189 VSS VSS VSS rppd l=0.5u w=0.5u
X190 VSS VSS VSS rppd l=0.5u w=0.5u
X191 VDD VDD VSS rhigh l=0.96u w=0.5u
X192 VDD VDD VSS rhigh l=0.96u w=0.5u
X193 VSS VSS VSS rppd l=0.5u w=0.5u
X194 VDD a_917_6931# a_1941_10831# VDD sg13_lv_pmos ad=0.68p pd=4.68u as=0.38p ps=2.38u w=2u l=0.13u
X195 VSS VX a_1369_9917# VSS sg13_lv_nmos ad=0.34p pd=2.68u as=0.19p ps=1.38u w=1u l=0.13u
X196 a_3009_9917# a_2584_9195# a_2907_9195# VSS sg13_lv_nmos ad=0.19p pd=1.38u as=0.19p ps=1.38u w=1u l=0.13u
X197 VDD a_1692_4709# a_1479_4709# VDD sg13_lv_pmos ad=0.38p pd=2.38u as=0.68p ps=4.68u w=2u l=0.13u
X198 VSS VSS VSS rppd l=0.5u w=0.5u
X199 VSS a_2380_10309# a_3009_10309# VSS sg13_lv_nmos ad=0.34p pd=2.68u as=0.19p ps=1.38u w=1u l=0.13u
X200 VSS VSS VSS rppd l=0.5u w=0.5u
X201 VDD a_3317_5853# a_3521_5853# VDD sg13_lv_pmos ad=0.38p pd=2.38u as=0.38p ps=2.38u w=2u l=0.13u
X202 a_3521_10309# a_3317_10309# VSS VSS sg13_lv_nmos ad=0.34p pd=2.68u as=0.19p ps=1.38u w=1u l=0.13u
X203 a_1267_6967# VSS VSS VSS sg13_lv_nmos ad=0.19p pd=1.38u as=0.34p ps=2.68u w=1u l=0.13u
X204 VSS VSS VSS rppd l=0.5u w=0.5u
X205 a_1839_6967# VDD VDD VDD sg13_lv_pmos ad=0.38p pd=2.38u as=0.68p ps=4.68u w=2u l=0.13u
X206 a_1941_9195# a_1839_10309# a_1839_9195# VDD sg13_lv_pmos ad=0.38p pd=2.38u as=0.38p ps=2.38u w=2u l=0.13u
X207 a_2380_8081# a_1839_8081# VDD VDD sg13_lv_pmos ad=0.68p pd=4.68u as=0.68p ps=4.68u w=2u l=0.13u
X208 a_4828_5366# MEM VDD VDD sg13_lv_pmos ad=0.38p pd=2.38u as=0.38p ps=2.38u w=2u l=0.13u
X209 VSS VSS VSS rppd l=0.5u w=0.5u
X210 a_1267_10309# a_1003_4745# VSS VSS sg13_lv_nmos ad=0.19p pd=1.38u as=0.34p ps=2.68u w=1u l=0.13u
X211 VDD a_4221_4709# a_3883_4709# VDD sg13_lv_pmos ad=0.68p pd=4.68u as=0.68p ps=4.68u w=2u l=0.65u
X212 VDD a_2380_5853# a_3009_6375# VDD sg13_lv_pmos ad=0.68p pd=4.68u as=0.38p ps=2.38u w=2u l=0.13u
X213 a_1839_8081# a_1003_4745# VSS VSS sg13_lv_nmos ad=0.19p pd=1.38u as=0.34p ps=2.68u w=1u l=0.13u
X214 a_2584_5853# a_1267_5853# VDD VDD sg13_lv_pmos ad=0.68p pd=4.68u as=0.68p ps=4.68u w=2u l=0.13u
X215 a_3984_11577# a_2951_11577# VSS rhigh l=4u w=0.5u
X216 VSS VSS VSS rppd l=0.5u w=0.5u
X217 a_2769_4709# COMP a_2897_5460# VSS sg13_lv_nmos ad=0.34p pd=2.68u as=0.19p ps=1.38u w=1u l=0.13u
X218 VSS a_3317_6967# a_3521_6967# VSS sg13_lv_nmos ad=0.19p pd=1.38u as=0.19p ps=1.38u w=1u l=0.13u
X219 VSS VSS VSS rppd l=0.5u w=0.5u
X220 a_2380_9195# a_1839_9195# VSS VSS sg13_lv_nmos ad=0.34p pd=2.68u as=0.34p ps=2.68u w=1u l=0.13u
X221 a_1267_6967# VDD VDD VDD sg13_lv_pmos ad=0.38p pd=2.38u as=0.68p ps=4.68u w=2u l=0.13u
X222 a_885_11577# a_1771_11577# VSS rhigh l=4u w=0.5u
X223 a_1369_9195# a_1267_10309# a_1267_9195# VDD sg13_lv_pmos ad=0.38p pd=2.38u as=0.38p ps=2.38u w=2u l=0.13u
X224 VSS a_2380_6967# a_3009_7689# VSS sg13_lv_nmos ad=0.34p pd=2.68u as=0.19p ps=1.38u w=1u l=0.13u
X225 a_2907_9195# a_2584_9195# a_2805_9195# VDD sg13_lv_pmos ad=0.38p pd=2.38u as=0.38p ps=2.38u w=2u l=0.13u
X226 VSS VSS VSS rppd l=0.5u w=0.5u
X227 a_2584_6967# a_1267_6967# VSS VSS sg13_lv_nmos ad=0.34p pd=2.68u as=0.34p ps=2.68u w=1u l=0.13u
X228 a_2805_5853# a_1839_5853# VSS VSS sg13_lv_nmos ad=0.19p pd=1.38u as=0.34p ps=2.68u w=1u l=0.13u
X229 VSS VSS VSS rppd l=0.5u w=0.5u
X230 a_1267_8081# a_1003_4745# VSS VSS sg13_lv_nmos ad=0.19p pd=1.38u as=0.34p ps=2.68u w=1u l=0.13u
X231 VSS VREF a_1941_5853# VSS sg13_lv_nmos ad=0.34p pd=2.68u as=0.19p ps=1.38u w=1u l=0.13u
X232 a_3521_5853# MEM VSS rppd l=0.5u w=0.5u
X233 a_1692_4709# COMP VSS VSS sg13_lv_nmos ad=0.19p pd=1.38u as=0.19p ps=1.38u w=1u l=0.13u
X234 VSS VREF a_1941_10309# VSS sg13_lv_nmos ad=0.34p pd=2.68u as=0.19p ps=1.38u w=1u l=0.13u
X235 a_1941_6375# a_1839_6967# a_1839_5853# VDD sg13_lv_pmos ad=0.38p pd=2.38u as=0.38p ps=2.38u w=2u l=0.13u
X236 VDD VDD VSS rhigh l=4u w=0.5u
X237 VSS VSS VSS rppd l=0.5u w=0.5u
X238 a_917_6931# VREF VSS VSS sg13_lv_nmos ad=0.34p pd=2.68u as=0.34p ps=2.68u w=1u l=0.13u
X239 COMP a_4828_5366# VSS VSS sg13_lv_nmos ad=0.19p pd=1.38u as=0.34p ps=2.68u w=1u l=0.13u
X240 VDD a_3317_6967# a_3521_6967# VDD sg13_lv_pmos ad=0.38p pd=2.38u as=0.38p ps=2.38u w=2u l=0.13u
X241 a_3521_6967# MEM VSS rppd l=0.5u w=0.5u
X242 a_3521_9195# a_3317_9195# VDD VDD sg13_lv_pmos ad=0.68p pd=4.68u as=0.38p ps=2.38u w=2u l=0.13u
X243 VSS VSS VSS rppd l=0.5u w=0.5u
X244 a_3521_10309# MEM VSS rppd l=0.5u w=0.5u
X245 VSS VSS VSS rppd l=0.5u w=0.5u
X246 VSS a_1479_4709# a_1071_4709# VSS sg13_lv_nmos ad=0.34p pd=2.68u as=0.34p ps=2.68u w=1u l=0.13u
X247 a_3521_5853# a_3317_5853# VSS VSS sg13_lv_nmos ad=0.19p pd=1.38u as=0.34p ps=2.68u w=1u l=0.13u
X248 a_3317_9195# a_2907_9195# VDD VDD sg13_lv_pmos ad=0.68p pd=4.68u as=0.68p ps=4.68u w=2u l=0.13u
X249 a_2805_8603# a_1839_8081# VDD VDD sg13_lv_pmos ad=0.38p pd=2.38u as=0.68p ps=4.68u w=2u l=0.13u
X250 VSS a_3317_8081# a_3521_8081# VSS sg13_lv_nmos ad=0.19p pd=1.38u as=0.19p ps=1.38u w=1u l=0.13u
X251 a_2584_6967# a_1267_6967# VDD VDD sg13_lv_pmos ad=0.68p pd=4.68u as=0.68p ps=4.68u w=2u l=0.13u
X252 VDD a_2380_6967# a_3009_6967# VDD sg13_lv_pmos ad=0.68p pd=4.68u as=0.38p ps=2.38u w=2u l=0.13u
X253 VDD a_917_6931# a_1941_8603# VDD sg13_lv_pmos ad=0.68p pd=4.68u as=0.38p ps=2.38u w=2u l=0.13u
X254 VDD a_4828_5366# COMP VDD sg13_lv_pmos ad=0.38p pd=2.38u as=0.38p ps=2.38u w=2u l=0.13u
X255 a_1369_10831# a_1267_5853# a_1267_10309# VDD sg13_lv_pmos ad=0.38p pd=2.38u as=0.38p ps=2.38u w=2u l=0.13u
X256 a_1941_7689# a_1839_8081# a_1839_6967# VSS sg13_lv_nmos ad=0.19p pd=1.38u as=0.19p ps=1.38u w=1u l=0.13u
X257 VDD a_3207_4709# a_2840_5276# VDD sg13_lv_pmos ad=0.68p pd=4.68u as=0.68p ps=4.68u w=2u l=0.65u
X258 VSS a_1071_4709# a_1003_4745# VSS sg13_lv_nmos ad=0.19p pd=1.38u as=0.34p ps=2.68u w=1u l=0.13u
X259 VSS VSS VSS rppd l=0.5u w=0.5u
X260 VSS a_2380_8081# a_3009_8081# VSS sg13_lv_nmos ad=0.34p pd=2.68u as=0.19p ps=1.38u w=1u l=0.13u
X261 a_1369_6375# a_1267_6967# a_1267_5853# VDD sg13_lv_pmos ad=0.38p pd=2.38u as=0.38p ps=2.38u w=2u l=0.13u
X262 a_2584_8081# a_1267_8081# VSS VSS sg13_lv_nmos ad=0.34p pd=2.68u as=0.34p ps=2.68u w=1u l=0.13u
X263 a_917_6931# a_917_6931# VDD VDD sg13_lv_pmos ad=0.68p pd=4.68u as=0.68p ps=4.68u w=2u l=0.13u
X264 a_2907_5853# a_2584_5853# a_2805_6375# VDD sg13_lv_pmos ad=0.38p pd=2.38u as=0.38p ps=2.38u w=2u l=0.13u
X265 a_3521_6967# MEM VSS rppd l=0.5u w=0.5u
X266 VDD VDD VSS rhigh l=4u w=0.5u
X267 a_3521_10309# MEM VSS rppd l=0.5u w=0.5u
X268 a_917_8508# VX VSS VSS sg13_lv_nmos ad=0.34p pd=2.68u as=0.34p ps=2.68u w=1u l=0.13u
X269 a_1820_4745# COMP VDD VDD sg13_lv_pmos ad=0.38p pd=2.38u as=0.38p ps=2.38u w=2u l=0.13u
X270 a_4828_5366# MEM VSS VSS sg13_lv_nmos ad=0.19p pd=1.38u as=0.19p ps=1.38u w=1u l=0.13u
X271 a_1918_11577# a_2804_11753# VSS rhigh l=4u w=0.5u
X272 VDD VDD VSS rhigh l=4u w=0.5u
X273 a_2805_9917# a_1839_9195# VSS VSS sg13_lv_nmos ad=0.19p pd=1.38u as=0.34p ps=2.68u w=1u l=0.13u
X274 a_3521_8081# a_3317_8081# VDD VDD sg13_lv_pmos ad=0.38p pd=2.38u as=0.68p ps=4.68u w=2u l=0.13u
X275 a_3521_10309# a_3317_10309# VDD VDD sg13_lv_pmos ad=0.38p pd=2.38u as=0.68p ps=4.68u w=2u l=0.13u
X276 VSS VREF a_1941_9917# VSS sg13_lv_nmos ad=0.34p pd=2.68u as=0.19p ps=1.38u w=1u l=0.13u
X277 VSS VSS VSS rppd l=0.5u w=0.5u
X278 VSS VSS VSS rppd l=0.5u w=0.5u
X279 a_2584_10309# a_1267_10309# VDD VDD sg13_lv_pmos ad=0.68p pd=4.68u as=0.68p ps=4.68u w=2u l=0.13u
X280 a_3521_5853# a_3317_5853# VDD VDD sg13_lv_pmos ad=0.68p pd=4.68u as=0.38p ps=2.38u w=2u l=0.13u
X281 a_1369_7689# a_1267_8081# a_1267_6967# VSS sg13_lv_nmos ad=0.19p pd=1.38u as=0.19p ps=1.38u w=1u l=0.13u
X282 a_1941_6967# a_1839_8081# a_1839_6967# VDD sg13_lv_pmos ad=0.38p pd=2.38u as=0.38p ps=2.38u w=2u l=0.13u
X283 a_2769_4709# a_2840_5276# VDD VDD sg13_lv_pmos ad=0.38p pd=2.38u as=0.38p ps=2.38u w=2u l=0.13u
X284 VDD VDD VSS rhigh l=0.96u w=0.5u
X285 VDD VDD VSS rhigh l=0.96u w=0.5u
X286 a_2907_6967# a_1267_6967# a_2805_7689# VSS sg13_lv_nmos ad=0.19p pd=1.38u as=0.19p ps=1.38u w=1u l=0.13u
X287 VDD MEM a_4828_5366# VDD sg13_lv_pmos ad=0.68p pd=4.68u as=0.38p ps=2.38u w=2u l=0.13u
X288 VDD a_1479_4709# a_1071_4709# VDD sg13_lv_pmos ad=0.68p pd=4.68u as=0.68p ps=4.68u w=2u l=0.13u
X289 a_3317_5853# a_2907_5853# VDD VDD sg13_lv_pmos ad=0.68p pd=4.68u as=0.68p ps=4.68u w=2u l=0.13u
X290 VDD VDD VSS rhigh l=4u w=0.5u
X291 a_2805_10831# a_1839_10309# VDD VDD sg13_lv_pmos ad=0.38p pd=2.38u as=0.68p ps=4.68u w=2u l=0.13u
X292 a_1941_8081# a_1839_9195# a_1839_8081# VSS sg13_lv_nmos ad=0.19p pd=1.38u as=0.19p ps=1.38u w=1u l=0.13u
X293 a_1839_5853# a_1003_4745# VSS VSS sg13_lv_nmos ad=0.19p pd=1.38u as=0.34p ps=2.68u w=1u l=0.13u
C0 a_2004_11577# a_885_11577# 0.05294f
C1 COMP a_3317_5853# 0.02406f
C2 COMP a_2538_4709# 0.04697f
C3 a_4351_11043# a_4735_11043# 0.01085f
C4 a_3317_10309# VDD 0.74568f
C5 a_1820_4745# RST 0.05784f
C6 VDD a_4351_7055# 0.02919f
C7 a_3317_8081# a_3317_9195# 0.01806f
C8 VDD a_1267_6967# 0.83508f
C9 a_1003_4745# SPIKE 0.21681f
C10 VDD a_1941_6375# 0.23537f
C11 a_4351_8815# a_4735_8815# 0.01085f
C12 a_4351_10831# MEM 0.02682f
C13 VDD VREF 0.22781f
C14 a_1369_8081# a_1267_9195# 0.01603f
C15 a_2805_9917# a_2584_9195# 0.01463f
C16 a_1267_8081# a_917_8508# 0.52305f
C17 a_4735_10616# a_4735_10831# 0.02872f
C18 a_2584_6967# a_2380_6967# 0.83154f
C19 a_3317_10309# a_3317_9195# 0.03047f
C20 VX a_1267_8081# 0.19947f
C21 a_2004_11753# a_1918_11577# 0.01534f
C22 VDD a_1692_4709# 0.14948f
C23 a_1839_5853# SPIKE 0.01495f
C24 a_3967_10616# a_3967_10831# 0.02872f
C25 VDD a_1839_10309# 0.74384f
C26 a_1267_8081# a_1267_9195# 0.47286f
C27 a_2907_9195# a_2380_9195# 0.20077f
C28 VDD a_2907_5853# 0.18898f
C29 a_1839_9195# a_1267_8081# 0.03204f
C30 a_2004_11441# a_2004_11577# 0.29305f
C31 a_4351_7482# a_4735_7482# 0.01085f
C32 a_3967_7267# a_3967_7482# 0.02872f
C33 a_2907_8081# a_3009_8081# 0.09917f
C34 a_2805_9917# a_1267_9195# 0.01675f
C35 a_3207_4709# RST 0.10055f
C36 a_1369_9195# a_917_8508# 0.01353f
C37 a_3207_4709# a_2840_5276# 0.12877f
C38 a_2584_6967# a_2805_6967# 0.04511f
C39 a_3037_11577# a_3837_11577# 0.01566f
C40 a_5078_11441# a_5078_11577# 0.07033f
C41 a_917_6931# a_1267_6967# 0.14548f
C42 VDD a_3883_4709# 0.54915f
C43 a_917_6931# a_1941_6375# 0.01325f
C44 VDD a_538_11577# 0.03563f
C45 VREF a_917_6931# 5.11101f
C46 a_1369_9195# a_1267_9195# 0.22323f
C47 a_2907_5853# a_2380_5853# 0.19738f
C48 VDD a_3967_10831# 0.011f
C49 a_4351_7267# MEM 0.02666f
C50 a_4070_11577# a_2951_11577# 0.05255f
C51 a_4351_6375# a_4735_6375# 0.01085f
C52 a_1003_4745# RST 0.56156f
C53 a_1839_8081# VREF 0.21432f
C54 a_4735_6375# a_4735_6587# 0.02952f
C55 VDD a_5078_11753# 0.03302f
C56 a_2907_9195# a_3009_9195# 0.21534f
C57 a_2380_8081# a_2380_6967# 0.03435f
C58 a_917_6931# a_1839_10309# 0.50569f
C59 a_3967_7482# a_4351_7482# 0.01085f
C60 a_1003_4745# a_1267_8081# 0.14084f
C61 a_1369_9195# a_1267_10309# 0.01956f
C62 a_4351_7482# MEM 0.02653f
C63 a_4351_8603# a_3967_8603# 0.01085f
C64 a_2805_8081# a_2907_8081# 0.09917f
C65 a_4828_5366# MEM 0.49351f
C66 a_3009_9917# a_2584_9195# 0.04702f
C67 a_3967_9710# a_3967_9922# 0.02952f
C68 VDD a_2380_5853# 0.53846f
C69 a_1839_6967# a_1267_6967# 0.86515f
C70 VDD a_3317_9195# 0.72635f
C71 a_1839_6967# a_1941_6375# 0.02756f
C72 a_1839_6967# VREF 0.20506f
C73 a_4351_6160# a_4735_6160# 0.01085f
C74 a_1839_5853# a_1267_8081# 0.25436f
C75 VDD a_3967_6587# 0.03605f
C76 a_1369_6967# a_917_8508# 0.01344f
C77 VDD a_4070_11441# 0.33809f
C78 a_4735_8603# MEM 0.01018f
C79 VDD a_917_6931# 1.27003f
C80 a_2004_11753# a_885_11577# 0.02034f
C81 a_1267_8081# a_2907_8081# 0.37587f
C82 COMP a_1692_4709# 0.44996f
C83 VDD a_1839_8081# 0.73208f
C84 a_971_11577# a_885_11577# 0.05224f
C85 a_3521_9195# a_4351_9495# 0.024f
C86 a_971_11753# a_971_11577# 0.13024f
C87 a_2380_6967# a_3317_6967# 0.0172f
C88 COMP a_2907_5853# 0.01039f
C89 a_1839_5853# a_2584_5853# 0.20652f
C90 a_2380_10309# a_2380_9195# 0.03435f
C91 a_1267_9195# a_1941_9195# 0.01706f
C92 VDD a_1071_4709# 0.71341f
C93 a_1839_9195# a_1941_9195# 0.21287f
C94 a_4735_10616# a_4351_10616# 0.01085f
C95 VDD a_1839_6967# 0.73528f
C96 COMP a_3883_4709# 0.20413f
C97 a_2584_9195# a_1267_9195# 0.70219f
C98 a_1369_10309# a_1267_5853# 0.01315f
C99 a_4221_4709# a_3883_4709# 0.15167f
C100 a_1839_9195# a_2584_9195# 0.20139f
C101 a_4351_9922# a_3967_9922# 0.01085f
C102 VDD COMP 0.98967f
C103 a_4735_8388# a_4351_8388# 0.01085f
C104 VDD a_1771_11577# 0.13616f
C105 VX a_917_8508# 4.07577f
C106 a_4735_9710# a_4735_9495# 0.02872f
C107 a_2951_11577# a_3037_11753# 0.02034f
C108 a_3967_8176# a_3967_8388# 0.02952f
C109 a_4221_4709# VDD 0.55327f
C110 a_2805_5853# a_2584_5853# 0.01463f
C111 a_1839_8081# a_917_6931# 0.46393f
C112 a_2380_6967# a_1267_6967# 0.624f
C113 a_2004_11753# a_2004_11933# 0.12339f
C114 a_917_8508# a_1267_9195# 0.62303f
C115 a_3967_8815# a_4351_8815# 0.01085f
C116 a_1941_10831# a_1839_10309# 0.20989f
C117 VX a_1267_9195# 0.19267f
C118 VDD a_4735_8815# 0.02946f
C119 a_4735_9710# a_4351_9710# 0.01085f
C120 a_3317_10309# a_3521_10309# 0.40835f
C121 VDD a_3037_11441# 0.37462f
C122 COMP a_2380_5853# 0.02344f
C123 a_1839_5853# a_2584_8081# 0.01989f
C124 a_3521_8081# a_3521_9195# 0.03716f
C125 a_1267_10309# a_2907_10309# 0.37961f
C126 a_3009_8603# a_2907_8081# 0.21534f
C127 VDD a_2805_8603# 0.23422f
C128 a_1839_9195# a_1267_9195# 0.57006f
C129 a_1267_10309# a_917_8508# 0.39966f
C130 a_4351_10831# a_4351_11043# 0.02952f
C131 a_3984_11577# a_4070_11753# 0.01578f
C132 a_4351_6375# MEM 0.02596f
C133 a_2584_8081# a_2907_8081# 0.34325f
C134 a_1839_6967# a_917_6931# 0.68693f
C135 VX a_1267_10309# 0.21105f
C136 a_1267_10309# a_1267_9195# 0.16814f
C137 a_1839_8081# a_1839_6967# 0.24755f
C138 a_4351_5948# a_4351_6160# 0.02952f
C139 VDD a_1941_10831# 0.23921f
C140 a_3521_5853# MEM 0.1089f
C141 a_4351_6375# a_4351_6160# 0.02872f
C142 a_1839_9195# a_1267_10309# 0.01073f
C143 a_4351_8176# a_4351_8388# 0.02952f
C144 a_538_11441# a_538_11577# 0.07033f
C145 a_1003_4745# a_917_8508# 0.15027f
C146 a_1267_6967# a_1941_6967# 0.01432f
C147 a_1839_5853# a_2584_9195# 0.02017f
C148 a_1839_8081# a_1941_8081# 0.10389f