*********************************************************
*** NGSPICE file created by KLayout-PEX 0.3.7
*** -----------------------------------------------------
***     Extraction Engine: KPEX/2.5D
***     Technology: ihp_sg13g2
***     Date: 2026-03-05 17:58:49
*********************************************************
.SUBCKT LIF_neuron VDD Vx MEM RST SPIKE VSS Vref
xM$1 VSS \$6 \$5 VSS sg13_lv_nmos L=0.13U W=1U AS=0.34P AD=0.19P PS=2.68U
+ PD=1.38U
xM$2 \$43 \$9 VSS VSS sg13_lv_nmos L=0.13U W=1U AS=0.19P AD=0.19P PS=1.38U
+ PD=1.38U
xM$3 \$6 Vout|vCMP \$43 VSS sg13_lv_nmos L=0.13U W=1U AS=0.19P AD=0.34P PS=1.38U
+ PD=2.68U
xM$4 VSS \$10 \$9 VSS sg13_lv_nmos L=0.65U W=1U AS=0.34P AD=0.34P PS=2.68U
+ PD=2.68U
xM$5 VSS \$11 \$10 VSS sg13_lv_nmos L=0.65U W=1U AS=0.34P AD=0.34P PS=2.68U
+ PD=2.68U
xM$6 VSS \$12 \$11 VSS sg13_lv_nmos L=0.65U W=1U AS=0.34P AD=0.34P PS=2.68U
+ PD=2.68U
xM$7 VSS \$13 \$12 VSS sg13_lv_nmos L=0.65U W=1U AS=0.34P AD=0.34P PS=2.68U
+ PD=2.68U
xM$8 VSS Vout|vCMP \$13 VSS sg13_lv_nmos L=0.65U W=1U AS=0.34P AD=0.34P PS=2.68U
+ PD=2.68U
xM$9 VSS \$7 RST VSS sg13_lv_nmos L=0.13U W=1U AS=0.34P AD=0.19P PS=2.68U
+ PD=1.38U
xM$10 RST \$7 VSS VSS sg13_lv_nmos L=0.13U W=1U AS=0.19P AD=0.19P PS=1.38U
+ PD=1.38U
xM$11 VSS \$7 RST VSS sg13_lv_nmos L=0.13U W=1U AS=0.19P AD=0.34P PS=1.38U
+ PD=2.68U
xM$12 VSS \$8 \$7 VSS sg13_lv_nmos L=0.13U W=1U AS=0.34P AD=0.34P PS=2.68U
+ PD=2.68U
xM$13 VSS \$39 \$8 VSS sg13_lv_nmos L=0.13U W=1U AS=0.34P AD=0.19P PS=2.68U
+ PD=1.38U
xM$14 \$39 Vout|vCMP VSS VSS sg13_lv_nmos L=0.13U W=1U AS=0.19P AD=0.19P
+ PS=1.38U PD=1.38U
xM$15 VSS RST|Ven \$39 VSS sg13_lv_nmos L=0.13U W=1U AS=0.19P AD=0.34P PS=1.38U
+ PD=2.68U
xM$16 VSS \$40 SPIKE VSS sg13_lv_nmos L=0.13U W=1U AS=0.34P AD=0.19P
+ PS=2.68U PD=1.38U
xM$17 SPIKE \$40 VSS VSS sg13_lv_nmos L=0.13U W=1U AS=0.19P AD=0.19P
+ PS=1.38U PD=1.38U
xM$18 VSS \$40 SPIKE VSS sg13_lv_nmos L=0.13U W=1U AS=0.19P AD=0.34P
+ PS=1.38U PD=2.68U
xM$19 VSS \$5 \$40 VSS sg13_lv_nmos L=0.13U W=1U AS=0.34P AD=0.34P PS=2.68U
+ PD=2.68U
xM$20 Vout|vCMP \$14 VSS VSS sg13_lv_nmos L=0.13U W=1U AS=0.34P AD=0.19P
+ PS=2.68U PD=1.38U
xM$21 VSS \$14 Vout|vCMP VSS sg13_lv_nmos L=0.13U W=1U AS=0.19P AD=0.19P
+ PS=1.38U PD=1.38U
xM$22 \$14 VOUT|Vin VSS VSS sg13_lv_nmos L=0.13U W=1U AS=0.19P AD=0.19P PS=1.38U
+ PD=1.38U
xM$23 VSS VOUT|Vin \$14 VSS sg13_lv_nmos L=0.13U W=1U AS=0.19P AD=0.34P PS=1.38U
+ PD=2.68U
xM$24 \$136 Vref VSS VSS sg13_lv_nmos L=0.13U W=1U AS=0.34P AD=0.34P PS=2.68U
+ PD=2.68U
xM$25 \$130 VSS VSS VSS sg13_lv_nmos L=0.13U W=1U AS=0.34P AD=0.19P PS=2.68U
+ PD=1.38U
xM$26 \$166 \$164 \$130 VSS sg13_lv_nmos L=0.13U W=1U AS=0.19P AD=0.19P PS=1.38U
+ PD=1.38U
xM$27 VSS Vctr|Vx \$166 VSS sg13_lv_nmos L=0.13U W=1U AS=0.19P AD=0.34P PS=1.38U
+ PD=2.68U
xM$28 \$71 RST VSS VSS sg13_lv_nmos L=0.13U W=1U AS=0.34P AD=0.19P PS=2.68U
+ PD=1.38U
xM$29 \$45 \$130 \$71 VSS sg13_lv_nmos L=0.13U W=1U AS=0.19P AD=0.19P PS=1.38U
+ PD=1.38U
xM$30 VSS Vctr|Vx \$45 VSS sg13_lv_nmos L=0.13U W=1U AS=0.19P AD=0.34P PS=1.38U
+ PD=2.68U
xM$31 \$100 VSS VSS VSS sg13_lv_nmos L=0.13U W=1U AS=0.34P AD=0.19P PS=2.68U
+ PD=1.38U
xM$32 \$172 \$165 \$100 VSS sg13_lv_nmos L=0.13U W=1U AS=0.19P AD=0.19P PS=1.38U
+ PD=1.38U
xM$33 VSS Vref \$172 VSS sg13_lv_nmos L=0.13U W=1U AS=0.19P AD=0.34P PS=1.38U
+ PD=2.68U
xM$34 \$46 RST VSS VSS sg13_lv_nmos L=0.13U W=1U AS=0.34P AD=0.19P PS=2.68U
+ PD=1.38U
xM$35 \$72 \$100 \$46 VSS sg13_lv_nmos L=0.13U W=1U AS=0.19P AD=0.19P PS=1.38U
+ PD=1.38U
xM$36 VSS Vref \$72 VSS sg13_lv_nmos L=0.13U W=1U AS=0.19P AD=0.34P PS=1.38U
+ PD=2.68U
xM$37 \$73 \$46 VSS VSS sg13_lv_nmos L=0.13U W=1U AS=0.34P AD=0.34P PS=2.68U
+ PD=2.68U
xM$38 \$138 \$100 VSS VSS sg13_lv_nmos L=0.13U W=1U AS=0.34P AD=0.34P PS=2.68U
+ PD=2.68U
xM$39 \$74 \$71 VSS VSS sg13_lv_nmos L=0.13U W=1U AS=0.34P AD=0.34P PS=2.68U
+ PD=2.68U
xM$40 \$139 \$130 VSS VSS sg13_lv_nmos L=0.13U W=1U AS=0.34P AD=0.34P PS=2.68U
+ PD=2.68U
xM$41 \$167 \$100 VSS VSS sg13_lv_nmos L=0.13U W=1U AS=0.34P AD=0.19P PS=2.68U
+ PD=1.38U
xM$42 \$133 \$130 \$167 VSS sg13_lv_nmos L=0.13U W=1U AS=0.19P AD=0.19P PS=1.38U
+ PD=1.38U
xM$43 \$168 \$139 \$133 VSS sg13_lv_nmos L=0.13U W=1U AS=0.19P AD=0.19P PS=1.38U
+ PD=1.38U
xM$44 VSS \$138 \$168 VSS sg13_lv_nmos L=0.13U W=1U AS=0.19P AD=0.34P PS=1.38U
+ PD=2.68U
xM$45 \$75 \$46 VSS VSS sg13_lv_nmos L=0.13U W=1U AS=0.34P AD=0.19P PS=2.68U
+ PD=1.38U
xM$46 \$76 \$71 \$75 VSS sg13_lv_nmos L=0.13U W=1U AS=0.19P AD=0.19P PS=1.38U
+ PD=1.38U
xM$47 \$47 \$74 \$76 VSS sg13_lv_nmos L=0.13U W=1U AS=0.19P AD=0.19P PS=1.38U
+ PD=1.38U
xM$48 VSS \$73 \$47 VSS sg13_lv_nmos L=0.13U W=1U AS=0.19P AD=0.34P PS=1.38U
+ PD=2.68U
xM$49 \$140 \$133 VSS VSS sg13_lv_nmos L=0.13U W=1U AS=0.34P AD=0.34P PS=2.68U
+ PD=2.68U
xM$50 \$77 \$76 VSS VSS sg13_lv_nmos L=0.13U W=1U AS=0.34P AD=0.34P PS=2.68U
+ PD=2.68U
xM$51 \$135 \$140 VSS VSS sg13_lv_nmos L=0.13U W=1U AS=0.34P AD=0.19P PS=2.68U
+ PD=1.38U
xM$52 VSS \$140 \$135 VSS sg13_lv_nmos L=0.13U W=1U AS=0.19P AD=0.19P PS=1.38U
+ PD=1.38U
xM$53 \$135 \$140 VSS VSS sg13_lv_nmos L=0.13U W=1U AS=0.19P AD=0.34P PS=1.38U
+ PD=2.68U
xM$54 \$78 \$77 VSS VSS sg13_lv_nmos L=0.13U W=1U AS=0.34P AD=0.19P PS=2.68U
+ PD=1.38U
xM$55 VSS \$77 \$78 VSS sg13_lv_nmos L=0.13U W=1U AS=0.19P AD=0.19P PS=1.38U
+ PD=1.38U
xM$56 \$78 \$77 VSS VSS sg13_lv_nmos L=0.13U W=1U AS=0.19P AD=0.34P PS=1.38U
+ PD=2.68U
xM$57 \$195 Vctr|Vx VSS VSS sg13_lv_nmos L=0.13U W=1U AS=0.34P AD=0.34P PS=2.68U
+ PD=2.68U
xM$58 \$164 RST VSS VSS sg13_lv_nmos L=0.13U W=1U AS=0.34P AD=0.19P
+ PS=2.68U PD=1.38U
xM$59 \$176 \$223 \$164 VSS sg13_lv_nmos L=0.13U W=1U AS=0.19P AD=0.19P PS=1.38U
+ PD=1.38U
xM$60 VSS Vctr|Vx \$176 VSS sg13_lv_nmos L=0.13U W=1U AS=0.19P AD=0.34P PS=1.38U
+ PD=2.68U
xM$61 \$165 RST VSS VSS sg13_lv_nmos L=0.13U W=1U AS=0.34P AD=0.19P
+ PS=2.68U PD=1.38U
xM$62 \$196 \$224 \$165 VSS sg13_lv_nmos L=0.13U W=1U AS=0.19P AD=0.19P PS=1.38U
+ PD=1.38U
xM$63 VSS Vref \$196 VSS sg13_lv_nmos L=0.13U W=1U AS=0.19P AD=0.34P PS=1.38U
+ PD=2.68U
xM$64 \$197 \$165 VSS VSS sg13_lv_nmos L=0.13U W=1U AS=0.34P AD=0.34P PS=2.68U
+ PD=2.68U
xM$65 \$198 \$164 VSS VSS sg13_lv_nmos L=0.13U W=1U AS=0.34P AD=0.34P PS=2.68U
+ PD=2.68U
xM$66 \$199 \$165 VSS VSS sg13_lv_nmos L=0.13U W=1U AS=0.34P AD=0.19P PS=2.68U
+ PD=1.38U
xM$67 \$200 \$164 \$199 VSS sg13_lv_nmos L=0.13U W=1U AS=0.19P AD=0.19P PS=1.38U
+ PD=1.38U
xM$68 \$201 \$198 \$200 VSS sg13_lv_nmos L=0.13U W=1U AS=0.19P AD=0.19P PS=1.38U
+ PD=1.38U
xM$69 VSS \$197 \$201 VSS sg13_lv_nmos L=0.13U W=1U AS=0.19P AD=0.34P PS=1.38U
+ PD=2.68U
xM$70 \$202 \$200 VSS VSS sg13_lv_nmos L=0.13U W=1U AS=0.34P AD=0.34P PS=2.68U
+ PD=2.68U
xM$71 \$177 \$202 VSS VSS sg13_lv_nmos L=0.13U W=1U AS=0.34P AD=0.19P PS=2.68U
+ PD=1.38U
xM$72 VSS \$202 \$177 VSS sg13_lv_nmos L=0.13U W=1U AS=0.19P AD=0.19P PS=1.38U
+ PD=1.38U
xM$73 \$177 \$202 VSS VSS sg13_lv_nmos L=0.13U W=1U AS=0.19P AD=0.34P PS=1.38U
+ PD=2.68U
xM$74 \$223 VSS VSS VSS sg13_lv_nmos L=0.13U W=1U AS=0.34P AD=0.19P PS=2.68U
+ PD=1.38U
xM$75 \$292 \$286 \$223 VSS sg13_lv_nmos L=0.13U W=1U AS=0.19P AD=0.19P PS=1.38U
+ PD=1.38U
xM$76 VSS Vctr|Vx \$292 VSS sg13_lv_nmos L=0.13U W=1U AS=0.19P AD=0.34P PS=1.38U
+ PD=2.68U
xM$77 \$286 RST VSS VSS sg13_lv_nmos L=0.13U W=1U AS=0.34P AD=0.19P
+ PS=2.68U PD=1.38U
xM$78 \$298 \$71 \$286 VSS sg13_lv_nmos L=0.13U W=1U AS=0.19P AD=0.19P PS=1.38U
+ PD=1.38U
xM$79 VSS Vctr|Vx \$298 VSS sg13_lv_nmos L=0.13U W=1U AS=0.19P AD=0.34P PS=1.38U
+ PD=2.68U
xM$80 \$224 VSS VSS VSS sg13_lv_nmos L=0.13U W=1U AS=0.34P AD=0.19P PS=2.68U
+ PD=1.38U
xM$81 \$293 \$287 \$224 VSS sg13_lv_nmos L=0.13U W=1U AS=0.19P AD=0.19P PS=1.38U
+ PD=1.38U
xM$82 VSS Vref \$293 VSS sg13_lv_nmos L=0.13U W=1U AS=0.19P AD=0.34P PS=1.38U
+ PD=2.68U
xM$83 \$287 RST VSS VSS sg13_lv_nmos L=0.13U W=1U AS=0.34P AD=0.19P
+ PS=2.68U PD=1.38U
xM$84 \$299 \$46 \$287 VSS sg13_lv_nmos L=0.13U W=1U AS=0.19P AD=0.19P PS=1.38U
+ PD=1.38U
xM$85 VSS Vref \$299 VSS sg13_lv_nmos L=0.13U W=1U AS=0.19P AD=0.34P PS=1.38U
+ PD=2.68U
xM$86 \$262 \$224 VSS VSS sg13_lv_nmos L=0.13U W=1U AS=0.34P AD=0.34P PS=2.68U
+ PD=2.68U
xM$87 \$318 \$287 VSS VSS sg13_lv_nmos L=0.13U W=1U AS=0.34P AD=0.34P PS=2.68U
+ PD=2.68U
xM$88 \$319 \$286 VSS VSS sg13_lv_nmos L=0.13U W=1U AS=0.34P AD=0.34P PS=2.68U
+ PD=2.68U
xM$89 \$263 \$223 VSS VSS sg13_lv_nmos L=0.13U W=1U AS=0.34P AD=0.34P PS=2.68U
+ PD=2.68U
xM$90 \$294 \$224 VSS VSS sg13_lv_nmos L=0.13U W=1U AS=0.34P AD=0.19P PS=2.68U
+ PD=1.38U
xM$91 \$257 \$223 \$294 VSS sg13_lv_nmos L=0.13U W=1U AS=0.19P AD=0.19P PS=1.38U
+ PD=1.38U
xM$92 \$291 \$263 \$257 VSS sg13_lv_nmos L=0.13U W=1U AS=0.19P AD=0.19P PS=1.38U
+ PD=1.38U
xM$93 VSS \$262 \$291 VSS sg13_lv_nmos L=0.13U W=1U AS=0.19P AD=0.34P PS=1.38U
+ PD=2.68U
xM$94 \$300 \$287 VSS VSS sg13_lv_nmos L=0.13U W=1U AS=0.34P AD=0.19P PS=2.68U
+ PD=1.38U
xM$95 \$320 \$286 \$300 VSS sg13_lv_nmos L=0.13U W=1U AS=0.19P AD=0.19P PS=1.38U
+ PD=1.38U
xM$96 \$301 \$319 \$320 VSS sg13_lv_nmos L=0.13U W=1U AS=0.19P AD=0.19P PS=1.38U
+ PD=1.38U
xM$97 VSS \$318 \$301 VSS sg13_lv_nmos L=0.13U W=1U AS=0.19P AD=0.34P PS=1.38U
+ PD=2.68U
xM$98 \$259 \$257 VSS VSS sg13_lv_nmos L=0.13U W=1U AS=0.34P AD=0.34P PS=2.68U
+ PD=2.68U
xM$99 \$321 \$320 VSS VSS sg13_lv_nmos L=0.13U W=1U AS=0.34P AD=0.34P PS=2.68U
+ PD=2.68U
xM$100 \$322 \$321 VSS VSS sg13_lv_nmos L=0.13U W=1U AS=0.34P AD=0.19P PS=2.68U
+ PD=1.38U
xM$101 VSS \$321 \$322 VSS sg13_lv_nmos L=0.13U W=1U AS=0.19P AD=0.19P PS=1.38U
+ PD=1.38U
xM$102 \$322 \$321 VSS VSS sg13_lv_nmos L=0.13U W=1U AS=0.19P AD=0.34P PS=1.38U
+ PD=2.68U
xM$103 \$260 \$259 VSS VSS sg13_lv_nmos L=0.13U W=1U AS=0.34P AD=0.19P PS=2.68U
+ PD=1.38U
xM$104 VSS \$259 \$260 VSS sg13_lv_nmos L=0.13U W=1U AS=0.19P AD=0.19P PS=1.38U
+ PD=1.38U
xM$105 \$260 \$259 VSS VSS sg13_lv_nmos L=0.13U W=1U AS=0.19P AD=0.34P PS=1.38U
+ PD=2.68U
xM$106 VDD \$7 RST VDD sg13_lv_pmos L=0.13U W=2U AS=0.68P AD=0.38P PS=4.68U
+ PD=2.38U
xM$107 RST \$7 VDD VDD sg13_lv_pmos L=0.13U W=2U AS=0.38P AD=0.38P PS=2.38U
+ PD=2.38U
xM$108 VDD \$7 RST VDD sg13_lv_pmos L=0.13U W=2U AS=0.38P AD=0.68P PS=2.38U
+ PD=4.68U
xM$109 VDD \$8 \$7 VDD sg13_lv_pmos L=0.13U W=2U AS=0.68P AD=0.68P PS=4.68U
+ PD=4.68U
xM$110 VDD \$39 \$8 VDD sg13_lv_pmos L=0.13U W=2U AS=0.68P AD=0.38P PS=4.68U
+ PD=2.38U
xM$111 \$3 Vout|vCMP VDD VDD sg13_lv_pmos L=0.13U W=2U AS=0.38P AD=0.38P
+ PS=2.38U PD=2.38U
xM$112 \$39 RST|Ven \$3 VDD sg13_lv_pmos L=0.13U W=2U AS=0.38P AD=0.68P PS=2.38U
+ PD=4.68U
xM$113 VDD \$40 SPIKE VDD sg13_lv_pmos L=0.13U W=2U AS=0.68P AD=0.38P
+ PS=4.68U PD=2.38U
xM$114 SPIKE \$40 VDD VDD sg13_lv_pmos L=0.13U W=2U AS=0.38P AD=0.38P
+ PS=2.38U PD=2.38U
xM$115 VDD \$40 SPIKE VDD sg13_lv_pmos L=0.13U W=2U AS=0.38P AD=0.68P
+ PS=2.38U PD=4.68U
xM$116 VDD \$5 \$40 VDD sg13_lv_pmos L=0.13U W=2U AS=0.68P AD=0.68P PS=4.68U
+ PD=4.68U
xM$117 VDD \$6 \$5 VDD sg13_lv_pmos L=0.13U W=2U AS=0.68P AD=0.38P PS=4.68U
+ PD=2.38U
xM$118 \$6 \$9 VDD VDD sg13_lv_pmos L=0.13U W=2U AS=0.38P AD=0.38P PS=2.38U
+ PD=2.38U
xM$119 VDD Vout|vCMP \$6 VDD sg13_lv_pmos L=0.13U W=2U AS=0.38P AD=0.68P
+ PS=2.38U PD=4.68U
xM$120 VDD \$10 \$9 VDD sg13_lv_pmos L=0.65U W=2U AS=0.68P AD=0.68P PS=4.68U
+ PD=4.68U
xM$121 VDD \$11 \$10 VDD sg13_lv_pmos L=0.65U W=2U AS=0.68P AD=0.68P PS=4.68U
+ PD=4.68U
xM$122 VDD \$12 \$11 VDD sg13_lv_pmos L=0.65U W=2U AS=0.68P AD=0.68P PS=4.68U
+ PD=4.68U
xM$123 VDD \$13 \$12 VDD sg13_lv_pmos L=0.65U W=2U AS=0.68P AD=0.68P PS=4.68U
+ PD=4.68U
xM$124 VDD Vout|vCMP \$13 VDD sg13_lv_pmos L=0.65U W=2U AS=0.68P AD=0.68P
+ PS=4.68U PD=4.68U
xM$125 \$136 \$136 VDD VDD sg13_lv_pmos L=0.13U W=2U AS=0.68P AD=0.68P PS=4.68U
+ PD=4.68U
xM$126 \$130 VDD VDD VDD sg13_lv_pmos L=0.13U W=2U AS=0.68P AD=0.38P PS=4.68U
+ PD=2.38U
xM$127 \$131 \$164 \$130 VDD sg13_lv_pmos L=0.13U W=2U AS=0.38P AD=0.38P
+ PS=2.38U PD=2.38U
xM$128 VDD \$195 \$131 VDD sg13_lv_pmos L=0.13U W=2U AS=0.38P AD=0.68P PS=2.38U
+ PD=4.68U
xM$129 \$71 VDD VDD VDD sg13_lv_pmos L=0.13U W=2U AS=0.68P AD=0.38P PS=4.68U
+ PD=2.38U
xM$130 \$104 \$130 \$71 VDD sg13_lv_pmos L=0.13U W=2U AS=0.38P AD=0.38P PS=2.38U
+ PD=2.38U
xM$131 VDD \$195 \$104 VDD sg13_lv_pmos L=0.13U W=2U AS=0.38P AD=0.68P PS=2.38U
+ PD=4.68U
xM$132 \$100 VDD VDD VDD sg13_lv_pmos L=0.13U W=2U AS=0.68P AD=0.38P PS=4.68U
+ PD=2.38U
xM$133 \$137 \$165 \$100 VDD sg13_lv_pmos L=0.13U W=2U AS=0.38P AD=0.38P
+ PS=2.38U PD=2.38U
xM$134 VDD \$136 \$137 VDD sg13_lv_pmos L=0.13U W=2U AS=0.38P AD=0.68P PS=2.38U
+ PD=4.68U
xM$135 \$46 VDD VDD VDD sg13_lv_pmos L=0.13U W=2U AS=0.68P AD=0.38P PS=4.68U
+ PD=2.38U
xM$136 \$105 \$100 \$46 VDD sg13_lv_pmos L=0.13U W=2U AS=0.38P AD=0.38P PS=2.38U
+ PD=2.38U
xM$137 VDD \$136 \$105 VDD sg13_lv_pmos L=0.13U W=2U AS=0.38P AD=0.68P PS=2.38U
+ PD=4.68U
xM$138 \$73 \$46 VDD VDD sg13_lv_pmos L=0.13U W=2U AS=0.68P AD=0.68P PS=4.68U
+ PD=4.68U
xM$139 \$138 \$100 VDD VDD sg13_lv_pmos L=0.13U W=2U AS=0.68P AD=0.68P PS=4.68U
+ PD=4.68U
xM$140 \$74 \$71 VDD VDD sg13_lv_pmos L=0.13U W=2U AS=0.68P AD=0.68P PS=4.68U
+ PD=4.68U
xM$141 \$139 \$130 VDD VDD sg13_lv_pmos L=0.13U W=2U AS=0.68P AD=0.68P PS=4.68U
+ PD=4.68U
xM$142 \$132 \$100 VDD VDD sg13_lv_pmos L=0.13U W=2U AS=0.68P AD=0.38P PS=4.68U
+ PD=2.38U
xM$143 \$133 \$139 \$132 VDD sg13_lv_pmos L=0.13U W=2U AS=0.38P AD=0.38P
+ PS=2.38U PD=2.38U
xM$144 \$134 \$130 \$133 VDD sg13_lv_pmos L=0.13U W=2U AS=0.38P AD=0.38P
+ PS=2.38U PD=2.38U
xM$145 VDD \$138 \$134 VDD sg13_lv_pmos L=0.13U W=2U AS=0.38P AD=0.68P PS=2.38U
+ PD=4.68U
xM$146 \$106 \$46 VDD VDD sg13_lv_pmos L=0.13U W=2U AS=0.68P AD=0.38P PS=4.68U
+ PD=2.38U
xM$147 \$76 \$74 \$106 VDD sg13_lv_pmos L=0.13U W=2U AS=0.38P AD=0.38P PS=2.38U
+ PD=2.38U
xM$148 \$107 \$71 \$76 VDD sg13_lv_pmos L=0.13U W=2U AS=0.38P AD=0.38P PS=2.38U
+ PD=2.38U
xM$149 VDD \$73 \$107 VDD sg13_lv_pmos L=0.13U W=2U AS=0.38P AD=0.68P PS=2.38U
+ PD=4.68U
xM$150 \$140 \$133 VDD VDD sg13_lv_pmos L=0.13U W=2U AS=0.68P AD=0.68P PS=4.68U
+ PD=4.68U
xM$151 \$77 \$76 VDD VDD sg13_lv_pmos L=0.13U W=2U AS=0.68P AD=0.68P PS=4.68U
+ PD=4.68U
xM$152 \$78 \$77 VDD VDD sg13_lv_pmos L=0.13U W=2U AS=0.68P AD=0.38P PS=4.68U
+ PD=2.38U
xM$153 VDD \$77 \$78 VDD sg13_lv_pmos L=0.13U W=2U AS=0.38P AD=0.38P PS=2.38U
+ PD=2.38U
xM$154 \$78 \$77 VDD VDD sg13_lv_pmos L=0.13U W=2U AS=0.38P AD=0.68P PS=2.38U
+ PD=4.68U
xM$155 \$135 \$140 VDD VDD sg13_lv_pmos L=0.13U W=2U AS=0.68P AD=0.38P PS=4.68U
+ PD=2.38U
xM$156 VDD \$140 \$135 VDD sg13_lv_pmos L=0.13U W=2U AS=0.38P AD=0.38P PS=2.38U
+ PD=2.38U
xM$157 \$135 \$140 VDD VDD sg13_lv_pmos L=0.13U W=2U AS=0.38P AD=0.68P PS=2.38U
+ PD=4.68U
xM$158 Vout|vCMP \$14 VDD VDD sg13_lv_pmos L=0.13U W=2U AS=0.68P AD=0.38P
+ PS=4.68U PD=2.38U
xM$159 VDD \$14 Vout|vCMP VDD sg13_lv_pmos L=0.13U W=2U AS=0.38P AD=0.38P
+ PS=2.38U PD=2.38U
xM$160 \$14 VOUT|Vin VDD VDD sg13_lv_pmos L=0.13U W=2U AS=0.38P AD=0.38P
+ PS=2.38U PD=2.38U
xM$161 VDD VOUT|Vin \$14 VDD sg13_lv_pmos L=0.13U W=2U AS=0.38P AD=0.68P
+ PS=2.38U PD=4.68U
xM$162 \$195 \$195 VDD VDD sg13_lv_pmos L=0.13U W=2U AS=0.68P AD=0.68P PS=4.68U
+ PD=4.68U
xM$163 \$164 VDD VDD VDD sg13_lv_pmos L=0.13U W=2U AS=0.68P AD=0.38P PS=4.68U
+ PD=2.38U
xM$164 \$228 \$223 \$164 VDD sg13_lv_pmos L=0.13U W=2U AS=0.38P AD=0.38P
+ PS=2.38U PD=2.38U
xM$165 VDD \$195 \$228 VDD sg13_lv_pmos L=0.13U W=2U AS=0.38P AD=0.68P PS=2.38U
+ PD=4.68U
xM$166 \$165 VDD VDD VDD sg13_lv_pmos L=0.13U W=2U AS=0.68P AD=0.38P PS=4.68U
+ PD=2.38U
xM$167 \$229 \$224 \$165 VDD sg13_lv_pmos L=0.13U W=2U AS=0.38P AD=0.38P
+ PS=2.38U PD=2.38U
xM$168 VDD \$136 \$229 VDD sg13_lv_pmos L=0.13U W=2U AS=0.38P AD=0.68P PS=2.38U
+ PD=4.68U
xM$169 \$197 \$165 VDD VDD sg13_lv_pmos L=0.13U W=2U AS=0.68P AD=0.68P PS=4.68U
+ PD=4.68U
xM$170 \$198 \$164 VDD VDD sg13_lv_pmos L=0.13U W=2U AS=0.68P AD=0.68P PS=4.68U
+ PD=4.68U
xM$171 \$231 \$165 VDD VDD sg13_lv_pmos L=0.13U W=2U AS=0.68P AD=0.38P PS=4.68U
+ PD=2.38U
xM$172 \$200 \$198 \$231 VDD sg13_lv_pmos L=0.13U W=2U AS=0.38P AD=0.38P
+ PS=2.38U PD=2.38U
xM$173 \$230 \$164 \$200 VDD sg13_lv_pmos L=0.13U W=2U AS=0.38P AD=0.38P
+ PS=2.38U PD=2.38U
xM$174 VDD \$197 \$230 VDD sg13_lv_pmos L=0.13U W=2U AS=0.38P AD=0.68P PS=2.38U
+ PD=4.68U
xM$175 \$202 \$200 VDD VDD sg13_lv_pmos L=0.13U W=2U AS=0.68P AD=0.68P PS=4.68U
+ PD=4.68U
xM$176 \$177 \$202 VDD VDD sg13_lv_pmos L=0.13U W=2U AS=0.68P AD=0.38P PS=4.68U
+ PD=2.38U
xM$177 VDD \$202 \$177 VDD sg13_lv_pmos L=0.13U W=2U AS=0.38P AD=0.38P PS=2.38U
+ PD=2.38U
xM$178 \$177 \$202 VDD VDD sg13_lv_pmos L=0.13U W=2U AS=0.38P AD=0.68P PS=2.38U
+ PD=4.68U
xM$179 \$223 VDD VDD VDD sg13_lv_pmos L=0.13U W=2U AS=0.68P AD=0.38P PS=4.68U
+ PD=2.38U
xM$180 \$261 \$286 \$223 VDD sg13_lv_pmos L=0.13U W=2U AS=0.38P AD=0.38P
+ PS=2.38U PD=2.38U
xM$181 VDD \$195 \$261 VDD sg13_lv_pmos L=0.13U W=2U AS=0.38P AD=0.68P PS=2.38U
+ PD=4.68U
xM$182 \$286 VDD VDD VDD sg13_lv_pmos L=0.13U W=2U AS=0.68P AD=0.38P PS=4.68U
+ PD=2.38U
xM$183 \$345 \$71 \$286 VDD sg13_lv_pmos L=0.13U W=2U AS=0.38P AD=0.38P PS=2.38U
+ PD=2.38U
xM$184 VDD \$195 \$345 VDD sg13_lv_pmos L=0.13U W=2U AS=0.38P AD=0.68P PS=2.38U
+ PD=4.68U
xM$185 \$287 VDD VDD VDD sg13_lv_pmos L=0.13U W=2U AS=0.68P AD=0.38P PS=4.68U
+ PD=2.38U
xM$186 \$346 \$46 \$287 VDD sg13_lv_pmos L=0.13U W=2U AS=0.38P AD=0.38P PS=2.38U
+ PD=2.38U
xM$187 VDD \$136 \$346 VDD sg13_lv_pmos L=0.13U W=2U AS=0.38P AD=0.68P PS=2.38U
+ PD=4.68U
xM$188 \$224 VDD VDD VDD sg13_lv_pmos L=0.13U W=2U AS=0.68P AD=0.38P PS=4.68U
+ PD=2.38U
xM$189 \$255 \$287 \$224 VDD sg13_lv_pmos L=0.13U W=2U AS=0.38P AD=0.38P
+ PS=2.38U PD=2.38U
xM$190 VDD \$136 \$255 VDD sg13_lv_pmos L=0.13U W=2U AS=0.38P AD=0.68P PS=2.38U
+ PD=4.68U
xM$191 \$318 \$287 VDD VDD sg13_lv_pmos L=0.13U W=2U AS=0.68P AD=0.68P PS=4.68U
+ PD=4.68U
xM$192 \$262 \$224 VDD VDD sg13_lv_pmos L=0.13U W=2U AS=0.68P AD=0.68P PS=4.68U
+ PD=4.68U
xM$193 \$263 \$223 VDD VDD sg13_lv_pmos L=0.13U W=2U AS=0.68P AD=0.68P PS=4.68U
+ PD=4.68U
xM$194 \$319 \$286 VDD VDD sg13_lv_pmos L=0.13U W=2U AS=0.68P AD=0.68P PS=4.68U
+ PD=4.68U
xM$195 \$256 \$224 VDD VDD sg13_lv_pmos L=0.13U W=2U AS=0.68P AD=0.38P PS=4.68U
+ PD=2.38U
xM$196 \$257 \$263 \$256 VDD sg13_lv_pmos L=0.13U W=2U AS=0.38P AD=0.38P
+ PS=2.38U PD=2.38U
xM$197 \$258 \$223 \$257 VDD sg13_lv_pmos L=0.13U W=2U AS=0.38P AD=0.38P
+ PS=2.38U PD=2.38U
xM$198 VDD \$262 \$258 VDD sg13_lv_pmos L=0.13U W=2U AS=0.38P AD=0.68P PS=2.38U
+ PD=4.68U
xM$199 \$347 \$287 VDD VDD sg13_lv_pmos L=0.13U W=2U AS=0.68P AD=0.38P PS=4.68U
+ PD=2.38U
xM$200 \$320 \$319 \$347 VDD sg13_lv_pmos L=0.13U W=2U AS=0.38P AD=0.38P
+ PS=2.38U PD=2.38U
xM$201 \$348 \$286 \$320 VDD sg13_lv_pmos L=0.13U W=2U AS=0.38P AD=0.38P
+ PS=2.38U PD=2.38U
xM$202 VDD \$318 \$348 VDD sg13_lv_pmos L=0.13U W=2U AS=0.38P AD=0.68P PS=2.38U
+ PD=4.68U
xM$203 \$259 \$257 VDD VDD sg13_lv_pmos L=0.13U W=2U AS=0.68P AD=0.68P PS=4.68U
+ PD=4.68U
xM$204 \$321 \$320 VDD VDD sg13_lv_pmos L=0.13U W=2U AS=0.68P AD=0.68P PS=4.68U
+ PD=4.68U
xM$205 \$322 \$321 VDD VDD sg13_lv_pmos L=0.13U W=2U AS=0.68P AD=0.38P PS=4.68U
+ PD=2.38U
xM$206 VDD \$321 \$322 VDD sg13_lv_pmos L=0.13U W=2U AS=0.38P AD=0.38P PS=2.38U
+ PD=2.38U
xM$207 \$322 \$321 VDD VDD sg13_lv_pmos L=0.13U W=2U AS=0.38P AD=0.68P PS=2.38U
+ PD=4.68U
xM$208 \$260 \$259 VDD VDD sg13_lv_pmos L=0.13U W=2U AS=0.68P AD=0.38P PS=4.68U
+ PD=2.38U
xM$209 VDD \$259 \$260 VDD sg13_lv_pmos L=0.13U W=2U AS=0.38P AD=0.38P PS=2.38U
+ PD=2.38U
xM$210 \$260 \$259 VDD VDD sg13_lv_pmos L=0.13U W=2U AS=0.38P AD=0.68P PS=2.38U
+ PD=4.68U
xR$211 VSS VSS sub! rppd w=0.5 l=0.5 ps=0 b=0 m=1
xR$212 VSS VSS sub! rppd w=0.5 l=0.5 ps=0 b=0 m=1
xR$213 VSS VSS sub! rppd w=0.5 l=0.5 ps=0 b=0 m=1
xR$214 VSS VSS sub! rppd w=0.5 l=0.5 ps=0 b=0 m=1
xR$215 \$78 VOUT|Vin sub! rppd w=0.5 l=0.5 ps=0 b=0 m=1
xR$216 VSS VSS sub! rppd w=0.5 l=0.5 ps=0 b=0 m=1
xR$217 VSS VSS sub! rppd w=0.5 l=0.5 ps=0 b=0 m=1
xR$218 \$78 VOUT|Vin sub! rppd w=0.5 l=0.5 ps=0 b=0 m=1
xR$219 VSS VSS sub! rppd w=0.5 l=0.5 ps=0 b=0 m=1
xR$220 VSS VSS sub! rppd w=0.5 l=0.5 ps=0 b=0 m=1
xR$221 VSS VSS sub! rppd w=0.5 l=0.5 ps=0 b=0 m=1
xR$222 VSS VSS sub! rppd w=0.5 l=0.5 ps=0 b=0 m=1
xR$223 VSS VSS sub! rppd w=0.5 l=0.5 ps=0 b=0 m=1
xR$224 VSS VSS sub! rppd w=0.5 l=0.5 ps=0 b=0 m=1
xR$225 VSS VSS sub! rppd w=0.5 l=0.5 ps=0 b=0 m=1
xR$226 VSS VSS sub! rppd w=0.5 l=0.5 ps=0 b=0 m=1
xR$227 \$135 VOUT|Vin sub! rppd w=0.5 l=0.5 ps=0 b=0 m=1
xR$228 VSS VSS sub! rppd w=0.5 l=0.5 ps=0 b=0 m=1
xR$229 VSS VSS sub! rppd w=0.5 l=0.5 ps=0 b=0 m=1
xR$230 \$135 VOUT|Vin sub! rppd w=0.5 l=0.5 ps=0 b=0 m=1
xR$231 VSS VSS sub! rppd w=0.5 l=0.5 ps=0 b=0 m=1
xR$232 VSS VSS sub! rppd w=0.5 l=0.5 ps=0 b=0 m=1
xR$233 VSS VSS sub! rppd w=0.5 l=0.5 ps=0 b=0 m=1
xR$234 VSS VSS sub! rppd w=0.5 l=0.5 ps=0 b=0 m=1
xR$235 VSS VSS sub! rppd w=0.5 l=0.5 ps=0 b=0 m=1
xR$236 VSS VSS sub! rppd w=0.5 l=0.5 ps=0 b=0 m=1
xR$237 VSS VSS sub! rppd w=0.5 l=0.5 ps=0 b=0 m=1
xR$238 VSS VSS sub! rppd w=0.5 l=0.5 ps=0 b=0 m=1
xR$239 \$177 VOUT|Vin sub! rppd w=0.5 l=0.5 ps=0 b=0 m=1
xR$240 VSS VSS sub! rppd w=0.5 l=0.5 ps=0 b=0 m=1
xR$241 VSS VSS sub! rppd w=0.5 l=0.5 ps=0 b=0 m=1
xR$242 \$177 VOUT|Vin sub! rppd w=0.5 l=0.5 ps=0 b=0 m=1
xR$243 VSS VSS sub! rppd w=0.5 l=0.5 ps=0 b=0 m=1
xR$244 VSS VSS sub! rppd w=0.5 l=0.5 ps=0 b=0 m=1
xR$245 VSS VSS sub! rppd w=0.5 l=0.5 ps=0 b=0 m=1
xR$246 VSS VSS sub! rppd w=0.5 l=0.5 ps=0 b=0 m=1
xR$247 VSS VSS sub! rppd w=0.5 l=0.5 ps=0 b=0 m=1
xR$248 VSS VSS sub! rppd w=0.5 l=0.5 ps=0 b=0 m=1
xR$249 VSS VSS sub! rppd w=0.5 l=0.5 ps=0 b=0 m=1
xR$250 VSS VSS sub! rppd w=0.5 l=0.5 ps=0 b=0 m=1
xR$251 \$260 VOUT|Vin sub! rppd w=0.5 l=0.5 ps=0 b=0 m=1
xR$252 VSS VSS sub! rppd w=0.5 l=0.5 ps=0 b=0 m=1
xR$253 VSS VSS sub! rppd w=0.5 l=0.5 ps=0 b=0 m=1
xR$254 \$260 VOUT|Vin sub! rppd w=0.5 l=0.5 ps=0 b=0 m=1
xR$255 VSS VSS sub! rppd w=0.5 l=0.5 ps=0 b=0 m=1
xR$256 VSS VSS sub! rppd w=0.5 l=0.5 ps=0 b=0 m=1
xR$257 VSS VSS sub! rppd w=0.5 l=0.5 ps=0 b=0 m=1
xR$258 VSS VSS sub! rppd w=0.5 l=0.5 ps=0 b=0 m=1
xR$259 VSS VSS sub! rppd w=0.5 l=0.5 ps=0 b=0 m=1
xR$260 VSS VSS sub! rppd w=0.5 l=0.5 ps=0 b=0 m=1
xR$261 VSS VSS sub! rppd w=0.5 l=0.5 ps=0 b=0 m=1
xR$262 VSS VSS sub! rppd w=0.5 l=0.5 ps=0 b=0 m=1
xR$263 \$322 VOUT|Vin sub! rppd w=0.5 l=0.5 ps=0 b=0 m=1
xR$264 VSS VSS sub! rppd w=0.5 l=0.5 ps=0 b=0 m=1
xR$265 VSS VSS sub! rppd w=0.5 l=0.5 ps=0 b=0 m=1
xR$266 \$322 VOUT|Vin sub! rppd w=0.5 l=0.5 ps=0 b=0 m=1
xR$267 VSS VSS sub! rppd w=0.5 l=0.5 ps=0 b=0 m=1
xR$268 VSS VSS sub! rppd w=0.5 l=0.5 ps=0 b=0 m=1
xR$269 VSS VSS sub! rppd w=0.5 l=0.5 ps=0 b=0 m=1
xR$270 VSS VSS sub! rppd w=0.5 l=0.5 ps=0 b=0 m=1
xR$271 VDD VDD sub! rhigh w=0.5 l=4 ps=0 b=0 m=1
xR$272 VDD VDD sub! rhigh w=0.5 l=4 ps=0 b=0 m=1
xR$273 VDD VDD sub! rhigh w=0.5 l=4 ps=0 b=0 m=1
xR$274 VDD VDD sub! rhigh w=0.5 l=4 ps=0 b=0 m=1
xR$275 \$375 \$376 sub! rhigh w=0.5 l=4 ps=0 b=0 m=1
xR$276 \$377 \$375 sub! rhigh w=0.5 l=4 ps=0 b=0 m=1
xR$277 \$378 \$379 sub! rhigh w=0.5 l=4 ps=0 b=0 m=1
xR$278 \$380 \$378 sub! rhigh w=0.5 l=4 ps=0 b=0 m=1
xR$279 Vctr|Vx \$376 sub! rhigh w=0.5 l=4 ps=0 b=0 m=1
xR$280 \$377 \$381 sub! rhigh w=0.5 l=4 ps=0 b=0 m=1
xR$281 \$381 \$379 sub! rhigh w=0.5 l=4 ps=0 b=0 m=1
xR$282 \$380 VOUT|Vin sub! rhigh w=0.5 l=4 ps=0 b=0 m=1
xR$283 VDD VDD sub! rhigh w=0.5 l=4 ps=0 b=0 m=1
xR$284 VDD VDD sub! rhigh w=0.5 l=4 ps=0 b=0 m=1
xR$285 VDD VDD sub! rhigh w=0.5 l=4 ps=0 b=0 m=1
xR$286 VDD VDD sub! rhigh w=0.5 l=4 ps=0 b=0 m=1
Cext_1 \$10 \$11 225.704a
Cext_2 \$10 \$6 4.86874a
Cext_3 \$10 \$76 7.43145a
Cext_4 \$10 \$77 2.16766a
Cext_5 \$10 \$9 169.877a
Cext_6 \$10 RST|Ven 106.65a
Cext_7 \$10 SPIKE 0.274934a
Cext_8 \$10 VDD 329.15a
Cext_9 \$10 Vout|vCMP 251.602a
Cext_10 \$10 VSS 202.436a
Cext_11 \$10 VSUBS 809.785a
Cext_12 \$100 \$104 0.146273a
Cext_13 \$100 \$105 41.1301a
Cext_14 \$100 \$130 966.114a
Cext_15 \$100 \$131 0.135089a
Cext_16 \$100 \$132 19.3541a
Cext_17 \$100 \$133 13.8067a
Cext_18 \$100 \$136 758.967a
Cext_19 \$100 \$137 207.365a
Cext_20 \$100 \$138 211.503a
Cext_21 \$100 \$139 267.592a
Cext_22 \$100 \$164 9.30732a
Cext_23 \$100 \$165 265.902a
Cext_24 \$100 \$167 9.4977a
Cext_25 \$100 \$172 98.0717a
Cext_26 \$100 \$195 10.1452a
Cext_27 \$100 \$198 0.498248a
Cext_28 \$100 \$39 0.405347a
Cext_29 \$100 \$46 632.576a
Cext_30 \$100 \$71 29.2121a
Cext_31 \$100 \$72 21.937a
Cext_32 \$100 \$73 0.197475a
Cext_33 \$100 \$74 0.497612a
Cext_34 \$100 \$76 0.309799a
Cext_35 \$100 RST|Ven 0.855244a
Cext_36 \$100 RST 1.08403f
Cext_37 \$100 SPIKE 6.77769a
Cext_38 \$100 Vctr|Vx 4.79911a
Cext_39 \$100 VDD 563.33a
Cext_40 \$100 Vref 244.301a
Cext_41 \$100 VSS 268.741a
Cext_42 \$100 VSUBS 1.35228f
Cext_43 \$104 \$130 46.1099a
Cext_44 \$104 \$136 0.6349a
Cext_45 \$104 \$164 0.518582a
Cext_46 \$104 \$195 21.3883a
Cext_47 \$104 \$71 211.987a
Cext_48 \$104 VDD 236.006a
Cext_49 \$104 VSUBS 29.68a
Cext_50 \$105 \$130 0.391907a
Cext_51 \$105 \$136 22.3293a
Cext_52 \$105 \$165 0.518582a
Cext_53 \$105 \$46 211.829a
Cext_54 \$105 \$71 11.9453a
Cext_55 \$105 VDD 237.778a
Cext_56 \$105 VSUBS 29.5864a
Cext_57 \$106 \$130 0.124398a
Cext_58 \$106 \$139 0.233118a
Cext_59 \$106 \$46 20.4947a
Cext_60 \$106 \$71 2.58383a
Cext_61 \$106 \$74 56.0763a
Cext_62 \$106 \$75 0.185029a
Cext_63 \$106 \$76 199.584a
Cext_64 \$106 VDD 216.886a
Cext_65 \$106 VSUBS 27.9851a
Cext_66 \$107 \$133 0.482027a
Cext_67 \$107 \$139 0.184706a
Cext_68 \$107 \$46 0.597278a
Cext_69 \$107 \$47 0.185029a
Cext_70 \$107 \$71 29.198a
Cext_71 \$107 \$73 19.659a
Cext_72 \$107 \$74 3.56119a
Cext_73 \$107 \$76 210.077a
Cext_74 \$107 VDD 252.053a
Cext_75 \$107 VSUBS 29.9313a
Cext_76 \$11 \$12 225.489a
Cext_77 \$11 \$6 0.666148a
Cext_78 \$11 \$77 8.41194a
Cext_79 \$11 \$78 1.6466a
Cext_80 \$11 RST|Ven 105.45a
Cext_81 \$11 SPIKE 0.159809a
Cext_82 \$11 VDD 332.925a
Cext_83 \$11 Vout|vCMP 204.648a
Cext_84 \$11 VSS 205.104a
Cext_85 \$11 VSUBS 808.074a
Cext_86 \$12 \$13 227.399a
Cext_87 \$12 \$6 0.318527a
Cext_88 \$12 \$78 3.23399a
Cext_89 \$12 RST|Ven 106.333a
Cext_90 \$12 VDD 336.002a
Cext_91 \$12 Vout|vCMP 198.731a
Cext_92 \$12 VSS 209.838a
Cext_93 \$12 VSUBS 810.951a
Cext_94 \$13 \$14 0.811338a
Cext_95 \$13 \$6 0.179409a
Cext_96 \$13 \$78 3.03543a
Cext_97 \$13 RST|Ven 106.665a
Cext_98 \$13 VDD 361.829a
Cext_99 \$13 Vout|vCMP 419.424a
Cext_100 \$13 VOUT|Vin 0.14806a
Cext_101 \$13 VSS 220.275a
Cext_102 \$13 VSUBS 816.497a
Cext_103 \$130 \$131 218.223a
Cext_104 \$130 \$132 1.61039a
Cext_105 \$130 \$133 396.474a
Cext_106 \$130 \$134 28.5519a
Cext_107 \$130 \$136 145.352a
Cext_108 \$130 \$137 13.0381a
Cext_109 \$130 \$138 692.9a
Cext_110 \$130 \$139 840.967a
Cext_111 \$130 \$140 9.09611a
Cext_112 \$130 \$164 253.17a
Cext_113 \$130 \$165 6.81589a
Cext_114 \$130 \$166 98.0717a
Cext_115 \$130 \$167 21.2936a
Cext_116 \$130 \$195 539.849a
Cext_117 \$130 \$197 1.19087a
Cext_118 \$130 \$198 0.588839a
Cext_119 \$130 \$45 20.7687a
Cext_120 \$130 \$46 359.18a
Cext_121 \$130 \$7 1.02968a
Cext_122 \$130 \$71 619.807a
Cext_123 \$130 \$73 0.699405a
Cext_124 \$130 \$74 0.379159a
Cext_125 \$130 \$76 0.865932a
Cext_126 \$130 RST 101.823a
Cext_127 \$130 SPIKE 0.465718a
Cext_128 \$130 Vctr|Vx 208.374a
Cext_129 \$130 VDD 588.037a
Cext_130 \$130 Vref 54.2387a
Cext_131 \$130 VSS 272.847a
Cext_132 \$130 VSUBS 1.41646f
Cext_133 \$131 \$136 1.96705a
Cext_134 \$131 \$164 31.8476a
Cext_135 \$131 \$195 22.7794a
Cext_136 \$131 \$71 0.915371a
Cext_137 \$131 VDD 236.496a
Cext_138 \$131 VSUBS 30.234a
Cext_139 \$132 \$133 200.016a
Cext_140 \$132 \$139 57.2982a
Cext_141 \$132 \$167 0.185029a
Cext_142 \$132 \$46 1.32314a
Cext_143 \$132 \$71 0.124398a
Cext_144 \$132 \$74 0.233118a
Cext_145 \$132 VDD 218.084a
Cext_146 \$132 VSUBS 28.5986a
Cext_147 \$133 \$134 210.642a
Cext_148 \$133 \$135 10.6747a
Cext_149 \$133 \$138 235.204a
Cext_150 \$133 \$139 358.871a
Cext_151 \$133 \$140 201.584a
Cext_152 \$133 \$165 0.341988a
Cext_153 \$133 \$167 98.0717a
Cext_154 \$133 \$168 98.0717a
Cext_155 \$133 \$198 0.443406a
Cext_156 \$133 \$200 10.7813a
Cext_157 \$133 \$46 1.99168a
Cext_158 \$133 \$71 0.865932a
Cext_159 \$133 \$73 0.727383a
Cext_160 \$133 \$76 20.202a
Cext_161 \$133 VDD 90.4777a
Cext_162 \$133 VSS 82.0775a
Cext_163 \$133 VSUBS 563.45a
Cext_164 \$134 \$138 19.6231a
Cext_165 \$134 \$139 3.56119a
Cext_166 \$134 \$168 0.185029a
Cext_167 \$134 \$46 0.841819a
Cext_168 \$134 \$74 0.184706a
Cext_169 \$134 \$76 0.482027a
Cext_170 \$134 VDD 252.721a
Cext_171 \$134 VSUBS 30.3212a
Cext_172 \$135 \$136 0.221681a
Cext_173 \$135 \$138 1.38144a
Cext_174 \$135 \$139 1.86333a
Cext_175 \$135 \$140 464.216a
Cext_176 \$135 \$177 28.7587a
Cext_177 \$135 \$202 1.37487a
Cext_178 \$135 \$46 0.338941a
Cext_179 \$135 \$77 1.70191a
Cext_180 \$135 \$78 36.2613a
Cext_181 \$135 VDD 650.51a
Cext_182 \$135 VOUT|Vin 134.851a
Cext_183 \$135 VSS 803.393a
Cext_184 \$135 VSUBS 576.099a
Cext_185 \$136 \$137 24.1635a
Cext_186 \$136 \$138 1.1535a
Cext_187 \$136 \$139 0.52211a
Cext_188 \$136 \$164 30.9917a
Cext_189 \$136 \$165 534.263a
Cext_190 \$136 \$172 0.7041a
Cext_191 \$136 \$195 45.1129a
Cext_192 \$136 \$196 1.82883a
Cext_193 \$136 \$197 0.867582a
Cext_194 \$136 \$198 0.168207a
Cext_195 \$136 \$223 30.6623a
Cext_196 \$136 \$224 742.72a
Cext_197 \$136 \$229 22.1768a
Cext_198 \$136 \$255 22.5483a
Cext_199 \$136 \$262 1.14995a
Cext_200 \$136 \$263 0.168207a
Cext_201 \$136 \$286 12.378a
Cext_202 \$136 \$287 578.386a
Cext_203 \$136 \$293 0.932704a
Cext_204 \$136 \$299 1.82883a
Cext_205 \$136 \$318 1.00013a
Cext_206 \$136 \$319 0.168207a
Cext_207 \$136 \$346 19.6365a
Cext_208 \$136 \$375 0.114033a
Cext_209 \$136 \$40 0.460633a
Cext_210 \$136 \$45 0.13685a
Cext_211 \$136 \$46 529.692a
Cext_212 \$136 \$71 117.917a
Cext_213 \$136 \$73 0.119911a
Cext_214 \$136 RST 90.1463a
Cext_215 \$136 Vctr|Vx 20.7935a
Cext_216 \$136 VDD 741.941a
Cext_217 \$136 Vref 5.12795f
Cext_218 \$136 VSS 236.099a
Cext_219 \$136 VSUBS 1.88493f
Cext_220 \$137 \$165 30.2471a
Cext_221 \$137 \$46 0.712711a
Cext_222 \$137 \$71 0.915371a
Cext_223 \$137 VDD 238.366a
Cext_224 \$137 VSUBS 30.4539a
Cext_225 \$138 \$139 862.212a
Cext_226 \$138 \$140 18.2166a
Cext_227 \$138 \$164 0.862943a
Cext_228 \$138 \$165 1.03186a
Cext_229 \$138 \$167 7.88112a
Cext_230 \$138 \$168 18.6588a
Cext_231 \$138 \$172 0.167938a
Cext_232 \$138 \$197 35.4785a
Cext_233 \$138 \$201 0.254046a