* PEX produced on Fri Mar 20 05:58:40 PM CET 2026 using /foss/tools/sak/sak-pex.sh with m=2 and s=1
* NGSPICE file created from LIF_neuron.ext - technology: ihp-sg13g2

.subckt LIF_neuron VDD Vx MEM RST SPIKE VSS Vref COMP
X0 VSS VSS VSS rppd l=0.5u w=0.5u
X1 VSS a_2538_4709# a_2130_4709# VSS sg13_lv_nmos ad=0.34p pd=2.68u as=0.34p ps=2.68u w=1u l=0.13u
X2 a_3521_9195# a_3317_9195# VSS VSS sg13_lv_nmos ad=0.19p pd=1.38u as=0.34p ps=2.68u w=1u l=0.13u
X3 VDD a_1071_4709# a_1003_4745# VDD sg13_lv_pmos ad=0.38p pd=2.38u as=0.68p ps=4.68u w=2u l=0.13u
X4 VSS a_2769_4709# a_2538_4709# VSS sg13_lv_nmos ad=0.19p pd=1.38u as=0.34p ps=2.68u w=1u l=0.13u
X5 VSS a_2130_4709# SPIKE VSS sg13_lv_nmos ad=0.19p pd=1.38u as=0.34p ps=2.68u w=1u l=0.13u
X6 a_3521_6967# a_3317_6967# VSS VSS sg13_lv_nmos ad=0.34p pd=2.68u as=0.19p ps=1.38u w=1u l=0.13u
X7 VSS a_3545_4709# a_3207_4709# VSS sg13_lv_nmos ad=0.34p pd=2.68u as=0.34p ps=2.68u w=1u l=0.65u
X8 VSS VSS VSS rppd l=0.5u w=0.5u
X9 VSS VSS VSS rppd l=0.5u w=0.5u
X10 a_1369_6967# a_1267_8081# a_1267_6967# VDD sg13_lv_pmos ad=0.38p pd=2.38u as=0.38p ps=2.38u w=2u l=0.13u
X11 VDD VDD VSS rhigh l=0.96u w=0.5u
X12 VDD a_917_8508# a_1369_9195# VDD sg13_lv_pmos ad=0.68p pd=4.68u as=0.38p ps=2.38u w=2u l=0.13u
X13 a_3317_6967# a_2907_6967# VSS VSS sg13_lv_nmos ad=0.34p pd=2.68u as=0.34p ps=2.68u w=1u l=0.13u
X14 a_2907_6967# a_2584_6967# a_2805_6967# VDD sg13_lv_pmos ad=0.38p pd=2.38u as=0.38p ps=2.38u w=2u l=0.13u
X15 a_2907_10309# a_2584_10309# a_2805_10831# VDD sg13_lv_pmos ad=0.38p pd=2.38u as=0.38p ps=2.38u w=2u l=0.13u
X16 a_1369_10309# a_1267_5853# a_1267_10309# VSS sg13_lv_nmos ad=0.19p pd=1.38u as=0.19p ps=1.38u w=1u l=0.13u
X17 a_3009_9195# a_1267_9195# a_2907_9195# VDD sg13_lv_pmos ad=0.38p pd=2.38u as=0.38p ps=2.38u w=2u l=0.13u
X18 a_1839_8081# VDD VDD VDD sg13_lv_pmos ad=0.38p pd=2.38u as=0.68p ps=4.68u w=2u l=0.13u
X19 a_1267_5853# a_1003_4745# VSS VSS sg13_lv_nmos ad=0.19p pd=1.38u as=0.34p ps=2.68u w=1u l=0.13u
X20 a_3521_8081# MEM VSS rppd l=0.5u w=0.5u
X21 a_1369_8081# a_1267_9195# a_1267_8081# VSS sg13_lv_nmos ad=0.19p pd=1.38u as=0.19p ps=1.38u w=1u l=0.13u
X22 VDD COMP a_4221_4709# VDD sg13_lv_pmos ad=0.68p pd=4.68u as=0.68p ps=4.68u w=2u l=0.65u
X23 VDD a_3883_4709# a_3545_4709# VDD sg13_lv_pmos ad=0.68p pd=4.68u as=0.68p ps=4.68u w=2u l=0.65u
X24 a_2907_8081# a_1267_8081# a_2805_8081# VSS sg13_lv_nmos ad=0.19p pd=1.38u as=0.19p ps=1.38u w=1u l=0.13u
X25 VSS RST a_1692_4709# VSS sg13_lv_nmos ad=0.34p pd=2.68u as=0.19p ps=1.38u w=1u l=0.13u
X26 VSS VSS VSS rppd l=0.5u w=0.5u
X27 VSS a_4828_5366# COMP VSS sg13_lv_nmos ad=0.19p pd=1.38u as=0.19p ps=1.38u w=1u l=0.13u
X28 a_3521_10309# a_3317_10309# VSS VSS sg13_lv_nmos ad=0.19p pd=1.38u as=0.34p ps=2.68u w=1u l=0.13u
X29 a_3521_6967# a_3317_6967# VDD VDD sg13_lv_pmos ad=0.68p pd=4.68u as=0.38p ps=2.38u w=2u l=0.13u
X30 VSS VSS VSS rppd l=0.5u w=0.5u
X31 a_2584_10309# a_1267_10309# VSS VSS sg13_lv_nmos ad=0.34p pd=2.68u as=0.34p ps=2.68u w=1u l=0.13u
X32 VDD a_2538_4709# a_2130_4709# VDD sg13_lv_pmos ad=0.68p pd=4.68u as=0.68p ps=4.68u w=2u l=0.13u
X33 VSS VSS VSS rppd l=0.5u w=0.5u
X34 a_3317_6967# a_2907_6967# VDD VDD sg13_lv_pmos ad=0.68p pd=4.68u as=0.68p ps=4.68u w=2u l=0.13u
X35 VSS a_3317_5853# a_3521_5853# VSS sg13_lv_nmos ad=0.19p pd=1.38u as=0.19p ps=1.38u w=1u l=0.13u
X36 a_1839_9195# VSS VSS VSS sg13_lv_nmos ad=0.19p pd=1.38u as=0.34p ps=2.68u w=1u l=0.13u
X37 a_3521_8081# a_3317_8081# VSS VSS sg13_lv_nmos ad=0.34p pd=2.68u as=0.19p ps=1.38u w=1u l=0.13u
X38 VDD a_2130_4709# SPIKE VDD sg13_lv_pmos ad=0.38p pd=2.38u as=0.68p ps=4.68u w=2u l=0.13u
X39 a_1267_8081# VDD VDD VDD sg13_lv_pmos ad=0.38p pd=2.38u as=0.68p ps=4.68u w=2u l=0.13u
X40 a_2805_10309# a_1839_10309# VSS VSS sg13_lv_nmos ad=0.19p pd=1.38u as=0.34p ps=2.68u w=1u l=0.13u
X41 a_1003_4745# a_1071_4709# VSS VSS sg13_lv_nmos ad=0.19p pd=1.38u as=0.19p ps=1.38u w=1u l=0.13u
X42 VSS a_2380_5853# a_3009_5853# VSS sg13_lv_nmos ad=0.34p pd=2.68u as=0.19p ps=1.38u w=1u l=0.13u
X43 a_3317_8081# a_2907_8081# VSS VSS sg13_lv_nmos ad=0.34p pd=2.68u as=0.34p ps=2.68u w=1u l=0.13u
X44 a_2584_5853# a_1267_5853# VSS VSS sg13_lv_nmos ad=0.34p pd=2.68u as=0.34p ps=2.68u w=1u l=0.13u
X45 VSS VSS VSS rppd l=0.5u w=0.5u
X46 VDD a_917_8508# a_1369_6375# VDD sg13_lv_pmos ad=0.68p pd=4.68u as=0.38p ps=2.38u w=2u l=0.13u
X47 VSS VSS VSS rppd l=0.5u w=0.5u
X48 a_2380_9195# a_1839_9195# VDD VDD sg13_lv_pmos ad=0.68p pd=4.68u as=0.68p ps=4.68u w=2u l=0.13u
X49 a_3009_6375# a_1267_5853# a_2907_5853# VDD sg13_lv_pmos ad=0.38p pd=2.38u as=0.38p ps=2.38u w=2u l=0.13u
X50 VSS VSS VSS rppd l=0.5u w=0.5u
X51 a_1839_10309# VDD VDD VDD sg13_lv_pmos ad=0.38p pd=2.38u as=0.68p ps=4.68u w=2u l=0.13u
X52 VSS MEM a_4828_5366# VSS sg13_lv_nmos ad=0.34p pd=2.68u as=0.19p ps=1.38u w=1u l=0.13u
X53 VSS VSS VSS rppd l=0.5u w=0.5u
X54 VDD a_3317_8081# a_3521_8081# VDD sg13_lv_pmos ad=0.38p pd=2.38u as=0.38p ps=2.38u w=2u l=0.13u
X55 a_1692_4709# RST a_1820_4745# VDD sg13_lv_pmos ad=0.68p pd=4.68u as=0.38p ps=2.38u w=2u l=0.13u
X56 a_1267_9195# VSS VSS VSS sg13_lv_nmos ad=0.19p pd=1.38u as=0.34p ps=2.68u w=1u l=0.13u
X57 VSS VSS VSS rppd l=0.5u w=0.5u
X58 a_2907_10309# a_1267_10309# a_2805_10309# VSS sg13_lv_nmos ad=0.19p pd=1.38u as=0.19p ps=1.38u w=1u l=0.13u
X59 VSS VSS VSS rppd l=0.5u w=0.5u
X60 VDD a_917_8508# a_1369_10831# VDD sg13_lv_pmos ad=0.68p pd=4.68u as=0.38p ps=2.38u w=2u l=0.13u
X61 VSS VX a_1369_7689# VSS sg13_lv_nmos ad=0.34p pd=2.68u as=0.19p ps=1.38u w=1u l=0.13u
X62 VDD a_2380_8081# a_3009_8603# VDD sg13_lv_pmos ad=0.68p pd=4.68u as=0.38p ps=2.38u w=2u l=0.13u
X63 VDD COMP a_2769_4709# VDD sg13_lv_pmos ad=0.68p pd=4.68u as=0.38p ps=2.38u w=2u l=0.13u
X64 a_2584_8081# a_1267_8081# VDD VDD sg13_lv_pmos ad=0.68p pd=4.68u as=0.68p ps=4.68u w=2u l=0.13u
X65 a_3009_7689# a_2584_6967# a_2907_6967# VSS sg13_lv_nmos ad=0.19p pd=1.38u as=0.19p ps=1.38u w=1u l=0.13u
X66 VDD VDD VSS rhigh l=0.96u w=0.5u
X67 a_3521_8081# MEM VSS rppd l=0.5u w=0.5u
X68 a_1941_5853# a_1839_6967# a_1839_5853# VSS sg13_lv_nmos ad=0.19p pd=1.38u as=0.19p ps=1.38u w=1u l=0.13u
X69 VSS a_3317_9195# a_3521_9195# VSS sg13_lv_nmos ad=0.19p pd=1.38u as=0.19p ps=1.38u w=1u l=0.13u
X70 a_917_8508# a_917_8508# VDD VDD sg13_lv_pmos ad=0.68p pd=4.68u as=0.68p ps=4.68u w=2u l=0.13u
X71 a_1003_4745# a_1071_4709# VDD VDD sg13_lv_pmos ad=0.38p pd=2.38u as=0.38p ps=2.38u w=2u l=0.13u
X72 SPIKE a_2130_4709# VSS VSS sg13_lv_nmos ad=0.19p pd=1.38u as=0.19p ps=1.38u w=1u l=0.13u
X73 a_2380_5853# a_1839_5853# VDD VDD sg13_lv_pmos ad=0.68p pd=4.68u as=0.68p ps=4.68u w=2u l=0.13u
X74 VDD a_3317_10309# a_3521_10309# VDD sg13_lv_pmos ad=0.38p pd=2.38u as=0.38p ps=2.38u w=2u l=0.13u
X75 a_2584_9195# a_1267_9195# VSS VSS sg13_lv_nmos ad=0.34p pd=2.68u as=0.34p ps=2.68u w=1u l=0.13u
X76 VSS a_2380_9195# a_3009_9917# VSS sg13_lv_nmos ad=0.34p pd=2.68u as=0.19p ps=1.38u w=1u l=0.13u
X77 VSS VSS VSS rppd l=0.5u w=0.5u
X78 VSS VSS VSS rppd l=0.5u w=0.5u
X79 VDD VDD VSS rhigh l=4u w=0.5u
X80 VDD a_917_8508# a_1369_6967# VDD sg13_lv_pmos ad=0.68p pd=4.68u as=0.38p ps=2.38u w=2u l=0.13u
X81 a_2804_11753# a_3837_11577# VSS rhigh l=4u w=0.5u
X82 a_3009_6967# a_1267_6967# a_2907_6967# VDD sg13_lv_pmos ad=0.38p pd=2.38u as=0.38p ps=2.38u w=2u l=0.13u
X83 VSS a_4221_4709# a_3883_4709# VSS sg13_lv_nmos ad=0.34p pd=2.68u as=0.34p ps=2.68u w=1u l=0.65u
X84 a_1918_11577# a_885_11577# VSS rhigh l=4u w=0.5u
X85 VSS VSS VSS rppd l=0.5u w=0.5u
X86 a_2805_9195# a_1839_9195# VDD VDD sg13_lv_pmos ad=0.38p pd=2.38u as=0.68p ps=4.68u w=2u l=0.13u
X87 a_1941_8603# a_1839_9195# a_1839_8081# VDD sg13_lv_pmos ad=0.38p pd=2.38u as=0.38p ps=2.38u w=2u l=0.13u
X88 a_1369_5853# a_1267_6967# a_1267_5853# VSS sg13_lv_nmos ad=0.19p pd=1.38u as=0.19p ps=1.38u w=1u l=0.13u
X89 VDD a_917_6931# a_1941_9195# VDD sg13_lv_pmos ad=0.68p pd=4.68u as=0.38p ps=2.38u w=2u l=0.13u
X90 VSS VX a_1369_8081# VSS sg13_lv_nmos ad=0.34p pd=2.68u as=0.19p ps=1.38u w=1u l=0.13u
X91 a_2907_5853# a_1267_5853# a_2805_5853# VSS sg13_lv_nmos ad=0.19p pd=1.38u as=0.19p ps=1.38u w=1u l=0.13u
X92 a_3009_8081# a_2584_8081# a_2907_8081# VSS sg13_lv_nmos ad=0.19p pd=1.38u as=0.19p ps=1.38u w=1u l=0.13u
X93 a_2380_6967# a_1839_6967# VSS VSS sg13_lv_nmos ad=0.34p pd=2.68u as=0.34p ps=2.68u w=1u l=0.13u
X94 VSS VSS VSS rppd l=0.5u w=0.5u
X95 a_3317_10309# a_2907_10309# VDD VDD sg13_lv_pmos ad=0.68p pd=4.68u as=0.68p ps=4.68u w=2u l=0.13u
X96 a_1839_10309# a_1003_4745# VSS VSS sg13_lv_nmos ad=0.19p pd=1.38u as=0.34p ps=2.68u w=1u l=0.13u
X97 VDD VDD VSS rhigh l=0.96u w=0.5u
X98 a_2380_10309# a_1839_10309# VDD VDD sg13_lv_pmos ad=0.68p pd=4.68u as=0.68p ps=4.68u w=2u l=0.13u
X99 VSS VSS VSS rppd l=0.5u w=0.5u
X100 a_3009_10831# a_1267_10309# a_2907_10309# VDD sg13_lv_pmos ad=0.38p pd=2.38u as=0.38p ps=2.38u w=2u l=0.13u
X101 VSS VX a_1369_10309# VSS sg13_lv_nmos ad=0.34p pd=2.68u as=0.19p ps=1.38u w=1u l=0.13u
X102 a_1941_9917# a_1839_10309# a_1839_9195# VSS sg13_lv_nmos ad=0.19p pd=1.38u as=0.19p ps=1.38u w=1u l=0.13u
X103 a_3521_9195# a_3317_9195# VDD VDD sg13_lv_pmos ad=0.38p pd=2.38u as=0.68p ps=4.68u w=2u l=0.13u
X104 VSS VSS VSS rppd l=0.5u w=0.5u
X105 SPIKE a_2130_4709# VDD VDD sg13_lv_pmos ad=0.38p pd=2.38u as=0.38p ps=2.38u w=2u l=0.13u
X106 a_3521_5853# a_3317_5853# VSS VSS sg13_lv_nmos ad=0.34p pd=2.68u as=0.19p ps=1.38u w=1u l=0.13u
X107 a_1369_8603# a_1267_9195# a_1267_8081# VDD sg13_lv_pmos ad=0.38p pd=2.38u as=0.38p ps=2.38u w=2u l=0.13u
X108 VSS VSS VSS rppd l=0.5u w=0.5u
X109 a_3317_5853# a_2907_5853# VSS VSS sg13_lv_nmos ad=0.34p pd=2.68u as=0.34p ps=2.68u w=1u l=0.13u
X110 VDD VDD VSS rhigh l=4u w=0.5u
X111 a_3984_11577# MEM VSS rhigh l=4u w=0.5u
X112 a_2907_8081# a_2584_8081# a_2805_8603# VDD sg13_lv_pmos ad=0.38p pd=2.38u as=0.38p ps=2.38u w=2u l=0.13u
X113 VSS a_1071_4709# a_1003_4745# VSS sg13_lv_nmos ad=0.34p pd=2.68u as=0.19p ps=1.38u w=1u l=0.13u
X114 a_3521_9195# MEM VSS rppd l=0.5u w=0.5u
X115 a_2380_6967# a_1839_6967# VDD VDD sg13_lv_pmos ad=0.68p pd=4.68u as=0.68p ps=4.68u w=2u l=0.13u
X116 VSS VSS VSS rppd l=0.5u w=0.5u
X117 VSS a_3317_10309# a_3521_10309# VSS sg13_lv_nmos ad=0.19p pd=1.38u as=0.19p ps=1.38u w=1u l=0.13u
X118 VSS VSS VSS rppd l=0.5u w=0.5u
X119 a_2805_6375# a_1839_5853# VDD VDD sg13_lv_pmos ad=0.38p pd=2.38u as=0.68p ps=4.68u w=2u l=0.13u
X120 a_2380_8081# a_1839_8081# VSS VSS sg13_lv_nmos ad=0.34p pd=2.68u as=0.34p ps=2.68u w=1u l=0.13u
X121 VSS VSS VSS rppd l=0.5u w=0.5u
X122 VDD a_917_6931# a_1941_6375# VDD sg13_lv_pmos ad=0.68p pd=4.68u as=0.38p ps=2.38u w=2u l=0.13u
X123 VSS VSS VSS rppd l=0.5u w=0.5u
X124 VDD VDD VSS rhigh l=4u w=0.5u
X125 VX a_1771_11577# VSS rhigh l=4u w=0.5u
X126 a_1369_9917# a_1267_10309# a_1267_9195# VSS sg13_lv_nmos ad=0.19p pd=1.38u as=0.19p ps=1.38u w=1u l=0.13u
X127 a_3521_8081# a_3317_8081# VDD VDD sg13_lv_pmos ad=0.68p pd=4.68u as=0.38p ps=2.38u w=2u l=0.13u
X128 VSS a_3207_4709# a_2840_5276# VSS sg13_lv_nmos ad=0.34p pd=2.68u as=0.34p ps=2.68u w=1u l=0.65u
X129 a_2907_9195# a_1267_9195# a_2805_9917# VSS sg13_lv_nmos ad=0.19p pd=1.38u as=0.19p ps=1.38u w=1u l=0.13u
X130 a_3317_8081# a_2907_8081# VDD VDD sg13_lv_pmos ad=0.68p pd=4.68u as=0.68p ps=4.68u w=2u l=0.13u
X131 VSS VSS VSS rppd l=0.5u w=0.5u
X132 VDD a_2769_4709# a_2538_4709# VDD sg13_lv_pmos ad=0.38p pd=2.38u as=0.68p ps=4.68u w=2u l=0.13u
X133 a_2805_7689# a_1839_6967# VSS VSS sg13_lv_nmos ad=0.19p pd=1.38u as=0.34p ps=2.68u w=1u l=0.13u
X134 a_3521_5853# a_3317_5853# VDD VDD sg13_lv_pmos ad=0.38p pd=2.38u as=0.68p ps=4.68u w=2u l=0.13u
X135 a_1941_10831# a_1839_5853# a_1839_10309# VDD sg13_lv_pmos ad=0.38p pd=2.38u as=0.38p ps=2.38u w=2u l=0.13u
X136 a_3317_10309# a_2907_10309# VSS VSS sg13_lv_nmos ad=0.34p pd=2.68u as=0.34p ps=2.68u w=1u l=0.13u
X137 a_1839_9195# VDD VDD VDD sg13_lv_pmos ad=0.38p pd=2.38u as=0.68p ps=4.68u w=2u l=0.13u
X138 VSS VSS VSS rppd l=0.5u w=0.5u
X139 VSS VREF a_1941_7689# VSS sg13_lv_nmos ad=0.34p pd=2.68u as=0.19p ps=1.38u w=1u l=0.13u
X140 VSS VSS VSS rppd l=0.5u w=0.5u
X141 VDD a_3545_4709# a_3207_4709# VDD sg13_lv_pmos ad=0.68p pd=4.68u as=0.68p ps=4.68u w=2u l=0.65u
X142 VDD VDD VSS rhigh l=4u w=0.5u
X143 a_2380_10309# a_1839_10309# VSS VSS sg13_lv_nmos ad=0.34p pd=2.68u as=0.34p ps=2.68u w=1u l=0.13u
X144 a_3521_9195# a_3317_9195# VSS VSS sg13_lv_nmos ad=0.34p pd=2.68u as=0.19p ps=1.38u w=1u l=0.13u
X145 VDD a_1071_4709# a_1003_4745# VDD sg13_lv_pmos ad=0.68p pd=4.68u as=0.38p ps=2.38u w=2u l=0.13u
X146 VSS a_2130_4709# SPIKE VSS sg13_lv_nmos ad=0.34p pd=2.68u as=0.19p ps=1.38u w=1u l=0.13u
X147 a_3009_10309# a_2584_10309# a_2907_10309# VSS sg13_lv_nmos ad=0.19p pd=1.38u as=0.19p ps=1.38u w=1u l=0.13u
X148 a_3317_9195# a_2907_9195# VSS VSS sg13_lv_nmos ad=0.34p pd=2.68u as=0.34p ps=2.68u w=1u l=0.13u
X149 VSS VSS VSS rppd l=0.5u w=0.5u
X150 a_2897_5460# a_2840_5276# VSS VSS sg13_lv_nmos ad=0.19p pd=1.38u as=0.19p ps=1.38u w=1u l=0.13u
X151 VDD VDD VSS rhigh l=0.96u w=0.5u
X152 VSS VSS VSS rppd l=0.5u w=0.5u
X153 a_3521_6967# a_3317_6967# VSS VSS sg13_lv_nmos ad=0.19p pd=1.38u as=0.34p ps=2.68u w=1u l=0.13u
X154 a_2805_6967# a_1839_6967# VDD VDD sg13_lv_pmos ad=0.38p pd=2.38u as=0.68p ps=4.68u w=2u l=0.13u
X155 VSS VSS VSS rppd l=0.5u w=0.5u
X156 a_1267_9195# VDD VDD VDD sg13_lv_pmos ad=0.38p pd=2.38u as=0.68p ps=4.68u w=2u l=0.13u
X157 VDD a_917_6931# a_1941_6967# VDD sg13_lv_pmos ad=0.68p pd=4.68u as=0.38p ps=2.38u w=2u l=0.13u
X158 VSS VX a_1369_5853# VSS sg13_lv_nmos ad=0.34p pd=2.68u as=0.19p ps=1.38u w=1u l=0.13u
X159 VDD a_2380_10309# a_3009_10831# VDD sg13_lv_pmos ad=0.68p pd=4.68u as=0.38p ps=2.38u w=2u l=0.13u
X160 a_3009_5853# a_2584_5853# a_2907_5853# VSS sg13_lv_nmos ad=0.19p pd=1.38u as=0.19p ps=1.38u w=1u l=0.13u
X161 a_3521_10309# a_3317_10309# VDD VDD sg13_lv_pmos ad=0.68p pd=4.68u as=0.38p ps=2.38u w=2u l=0.13u
X162 a_3521_9195# MEM VSS rppd l=0.5u w=0.5u
X163 a_2805_8081# a_1839_8081# VSS VSS sg13_lv_nmos ad=0.19p pd=1.38u as=0.34p ps=2.68u w=1u l=0.13u
X164 VSS VREF a_1941_8081# VSS sg13_lv_nmos ad=0.34p pd=2.68u as=0.19p ps=1.38u w=1u l=0.13u
X165 VSS a_1692_4709# a_1479_4709# VSS sg13_lv_nmos ad=0.19p pd=1.38u as=0.34p ps=2.68u w=1u l=0.13u
X166 a_1839_5853# VDD VDD VDD sg13_lv_pmos ad=0.38p pd=2.38u as=0.68p ps=4.68u w=2u l=0.13u
X167 a_1267_10309# VDD VDD VDD sg13_lv_pmos ad=0.38p pd=2.38u as=0.68p ps=4.68u w=2u l=0.13u
X168 a_3521_5853# MEM VSS rppd l=0.5u w=0.5u
X169 VSS VSS VSS rppd l=0.5u w=0.5u
X170 a_3521_6967# a_3317_6967# VDD VDD sg13_lv_pmos ad=0.38p pd=2.38u as=0.68p ps=4.68u w=2u l=0.13u
X171 VDD a_3317_9195# a_3521_9195# VDD sg13_lv_pmos ad=0.38p pd=2.38u as=0.38p ps=2.38u w=2u l=0.13u
X172 VDD a_2130_4709# SPIKE VDD sg13_lv_pmos ad=0.68p pd=4.68u as=0.38p ps=2.38u w=2u l=0.13u
X173 VSS a_3883_4709# a_3545_4709# VSS sg13_lv_nmos ad=0.34p pd=2.68u as=0.34p ps=2.68u w=1u l=0.65u
X174 VDD a_917_8508# a_1369_8603# VDD sg13_lv_pmos ad=0.68p pd=4.68u as=0.38p ps=2.38u w=2u l=0.13u
X175 VSS VSS VSS rppd l=0.5u w=0.5u
X176 VSS COMP a_4221_4709# VSS sg13_lv_nmos ad=0.34p pd=2.68u as=0.34p ps=2.68u w=1u l=0.65u
X177 VSS VSS VSS rppd l=0.5u w=0.5u
X178 a_3009_8603# a_1267_8081# a_2907_8081# VDD sg13_lv_pmos ad=0.38p pd=2.38u as=0.38p ps=2.38u w=2u l=0.13u
X179 a_3521_8081# a_3317_8081# VSS VSS sg13_lv_nmos ad=0.19p pd=1.38u as=0.34p ps=2.68u w=1u l=0.13u
X180 a_1941_10309# a_1839_5853# a_1839_10309# VSS sg13_lv_nmos ad=0.19p pd=1.38u as=0.19p ps=1.38u w=1u l=0.13u
X181 VDD a_2380_9195# a_3009_9195# VDD sg13_lv_pmos ad=0.68p pd=4.68u as=0.38p ps=2.38u w=2u l=0.13u
X182 a_2584_9195# a_1267_9195# VDD VDD sg13_lv_pmos ad=0.68p pd=4.68u as=0.68p ps=4.68u w=2u l=0.13u
X183 a_1839_6967# VSS VSS VSS sg13_lv_nmos ad=0.19p pd=1.38u as=0.34p ps=2.68u w=1u l=0.13u
X184 COMP a_4828_5366# VDD VDD sg13_lv_pmos ad=0.38p pd=2.38u as=0.68p ps=4.68u w=2u l=0.13u
X185 a_2951_11577# a_3837_11577# VSS rhigh l=4u w=0.5u
X186 a_2380_5853# a_1839_5853# VSS VSS sg13_lv_nmos ad=0.34p pd=2.68u as=0.34p ps=2.68u w=1u l=0.13u
X187 VSS VSS VSS rppd l=0.5u w=0.5u
X188 a_1267_5853# VDD VDD VDD sg13_lv_pmos ad=0.38p pd=2.38u as=0.68p ps=4.68u w=2u l=0.13u
X189 VSS VSS VSS rppd l=0.5u w=0.5u
X190 VSS VSS VSS rppd l=0.5u w=0.5u
X191 VDD VDD VSS rhigh l=0.96u w=0.5u
X192 VDD VDD VSS rhigh l=0.96u w=0.5u
X193 VSS VSS VSS rppd l=0.5u w=0.5u
X194 VDD a_917_6931# a_1941_10831# VDD sg13_lv_pmos ad=0.68p pd=4.68u as=0.38p ps=2.38u w=2u l=0.13u
X195 VSS VX a_1369_9917# VSS sg13_lv_nmos ad=0.34p pd=2.68u as=0.19p ps=1.38u w=1u l=0.13u
X196 a_3009_9917# a_2584_9195# a_2907_9195# VSS sg13_lv_nmos ad=0.19p pd=1.38u as=0.19p ps=1.38u w=1u l=0.13u
X197 VDD a_1692_4709# a_1479_4709# VDD sg13_lv_pmos ad=0.38p pd=2.38u as=0.68p ps=4.68u w=2u l=0.13u
X198 VSS VSS VSS rppd l=0.5u w=0.5u
X199 VSS a_2380_10309# a_3009_10309# VSS sg13_lv_nmos ad=0.34p pd=2.68u as=0.19p ps=1.38u w=1u l=0.13u
X200 VSS VSS VSS rppd l=0.5u w=0.5u
X201 VDD a_3317_5853# a_3521_5853# VDD sg13_lv_pmos ad=0.38p pd=2.38u as=0.38p ps=2.38u w=2u l=0.13u
X202 a_3521_10309# a_3317_10309# VSS VSS sg13_lv_nmos ad=0.34p pd=2.68u as=0.19p ps=1.38u w=1u l=0.13u
X203 a_1267_6967# VSS VSS VSS sg13_lv_nmos ad=0.19p pd=1.38u as=0.34p ps=2.68u w=1u l=0.13u
X204 VSS VSS VSS rppd l=0.5u w=0.5u
X205 a_1839_6967# VDD VDD VDD sg13_lv_pmos ad=0.38p pd=2.38u as=0.68p ps=4.68u w=2u l=0.13u
X206 a_1941_9195# a_1839_10309# a_1839_9195# VDD sg13_lv_pmos ad=0.38p pd=2.38u as=0.38p ps=2.38u w=2u l=0.13u
X207 a_2380_8081# a_1839_8081# VDD VDD sg13_lv_pmos ad=0.68p pd=4.68u as=0.68p ps=4.68u w=2u l=0.13u
X208 a_4828_5366# MEM VDD VDD sg13_lv_pmos ad=0.38p pd=2.38u as=0.38p ps=2.38u w=2u l=0.13u
X209 VSS VSS VSS rppd l=0.5u w=0.5u
X210 a_1267_10309# a_1003_4745# VSS VSS sg13_lv_nmos ad=0.19p pd=1.38u as=0.34p ps=2.68u w=1u l=0.13u
X211 VDD a_4221_4709# a_3883_4709# VDD sg13_lv_pmos ad=0.68p pd=4.68u as=0.68p ps=4.68u w=2u l=0.65u
X212 VDD a_2380_5853# a_3009_6375# VDD sg13_lv_pmos ad=0.68p pd=4.68u as=0.38p ps=2.38u w=2u l=0.13u
X213 a_1839_8081# a_1003_4745# VSS VSS sg13_lv_nmos ad=0.19p pd=1.38u as=0.34p ps=2.68u w=1u l=0.13u
X214 a_2584_5853# a_1267_5853# VDD VDD sg13_lv_pmos ad=0.68p pd=4.68u as=0.68p ps=4.68u w=2u l=0.13u
X215 a_3984_11577# a_2951_11577# VSS rhigh l=4u w=0.5u
X216 VSS VSS VSS rppd l=0.5u w=0.5u
X217 a_2769_4709# COMP a_2897_5460# VSS sg13_lv_nmos ad=0.34p pd=2.68u as=0.19p ps=1.38u w=1u l=0.13u
X218 VSS a_3317_6967# a_3521_6967# VSS sg13_lv_nmos ad=0.19p pd=1.38u as=0.19p ps=1.38u w=1u l=0.13u
X219 VSS VSS VSS rppd l=0.5u w=0.5u
X220 a_2380_9195# a_1839_9195# VSS VSS sg13_lv_nmos ad=0.34p pd=2.68u as=0.34p ps=2.68u w=1u l=0.13u
X221 a_1267_6967# VDD VDD VDD sg13_lv_pmos ad=0.38p pd=2.38u as=0.68p ps=4.68u w=2u l=0.13u
X222 a_885_11577# a_1771_11577# VSS rhigh l=4u w=0.5u
X223 a_1369_9195# a_1267_10309# a_1267_9195# VDD sg13_lv_pmos ad=0.38p pd=2.38u as=0.38p ps=2.38u w=2u l=0.13u
X224 VSS a_2380_6967# a_3009_7689# VSS sg13_lv_nmos ad=0.34p pd=2.68u as=0.19p ps=1.38u w=1u l=0.13u
X225 a_2907_9195# a_2584_9195# a_2805_9195# VDD sg13_lv_pmos ad=0.38p pd=2.38u as=0.38p ps=2.38u w=2u l=0.13u
X226 VSS VSS VSS rppd l=0.5u w=0.5u
X227 a_2584_6967# a_1267_6967# VSS VSS sg13_lv_nmos ad=0.34p pd=2.68u as=0.34p ps=2.68u w=1u l=0.13u
X228 a_2805_5853# a_1839_5853# VSS VSS sg13_lv_nmos ad=0.19p pd=1.38u as=0.34p ps=2.68u w=1u l=0.13u
X229 VSS VSS VSS rppd l=0.5u w=0.5u
X230 a_1267_8081# a_1003_4745# VSS VSS sg13_lv_nmos ad=0.19p pd=1.38u as=0.34p ps=2.68u w=1u l=0.13u
X231 VSS VREF a_1941_5853# VSS sg13_lv_nmos ad=0.34p pd=2.68u as=0.19p ps=1.38u w=1u l=0.13u
X232 a_3521_5853# MEM VSS rppd l=0.5u w=0.5u
X233 a_1692_4709# COMP VSS VSS sg13_lv_nmos ad=0.19p pd=1.38u as=0.19p ps=1.38u w=1u l=0.13u
X234 VSS VREF a_1941_10309# VSS sg13_lv_nmos ad=0.34p pd=2.68u as=0.19p ps=1.38u w=1u l=0.13u
X235 a_1941_6375# a_1839_6967# a_1839_5853# VDD sg13_lv_pmos ad=0.38p pd=2.38u as=0.38p ps=2.38u w=2u l=0.13u
X236 VDD VDD VSS rhigh l=4u w=0.5u
X237 VSS VSS VSS rppd l=0.5u w=0.5u
X238 a_917_6931# VREF VSS VSS sg13_lv_nmos ad=0.34p pd=2.68u as=0.34p ps=2.68u w=1u l=0.13u
X239 COMP a_4828_5366# VSS VSS sg13_lv_nmos ad=0.19p pd=1.38u as=0.34p ps=2.68u w=1u l=0.13u
X240 VDD a_3317_6967# a_3521_6967# VDD sg13_lv_pmos ad=0.38p pd=2.38u as=0.38p ps=2.38u w=2u l=0.13u
X241 a_3521_6967# MEM VSS rppd l=0.5u w=0.5u
X242 a_3521_9195# a_3317_9195# VDD VDD sg13_lv_pmos ad=0.68p pd=4.68u as=0.38p ps=2.38u w=2u l=0.13u
X243 VSS VSS VSS rppd l=0.5u w=0.5u
X244 a_3521_10309# MEM VSS rppd l=0.5u w=0.5u
X245 VSS VSS VSS rppd l=0.5u w=0.5u
X246 VSS a_1479_4709# a_1071_4709# VSS sg13_lv_nmos ad=0.34p pd=2.68u as=0.34p ps=2.68u w=1u l=0.13u
X247 a_3521_5853# a_3317_5853# VSS VSS sg13_lv_nmos ad=0.19p pd=1.38u as=0.34p ps=2.68u w=1u l=0.13u
X248 a_3317_9195# a_2907_9195# VDD VDD sg13_lv_pmos ad=0.68p pd=4.68u as=0.68p ps=4.68u w=2u l=0.13u
X249 a_2805_8603# a_1839_8081# VDD VDD sg13_lv_pmos ad=0.38p pd=2.38u as=0.68p ps=4.68u w=2u l=0.13u
X250 VSS a_3317_8081# a_3521_8081# VSS sg13_lv_nmos ad=0.19p pd=1.38u as=0.19p ps=1.38u w=1u l=0.13u
X251 a_2584_6967# a_1267_6967# VDD VDD sg13_lv_pmos ad=0.68p pd=4.68u as=0.68p ps=4.68u w=2u l=0.13u
X252 VDD a_2380_6967# a_3009_6967# VDD sg13_lv_pmos ad=0.68p pd=4.68u as=0.38p ps=2.38u w=2u l=0.13u
X253 VDD a_917_6931# a_1941_8603# VDD sg13_lv_pmos ad=0.68p pd=4.68u as=0.38p ps=2.38u w=2u l=0.13u
X254 VDD a_4828_5366# COMP VDD sg13_lv_pmos ad=0.38p pd=2.38u as=0.38p ps=2.38u w=2u l=0.13u
X255 a_1369_10831# a_1267_5853# a_1267_10309# VDD sg13_lv_pmos ad=0.38p pd=2.38u as=0.38p ps=2.38u w=2u l=0.13u
X256 a_1941_7689# a_1839_8081# a_1839_6967# VSS sg13_lv_nmos ad=0.19p pd=1.38u as=0.19p ps=1.38u w=1u l=0.13u
X257 VDD a_3207_4709# a_2840_5276# VDD sg13_lv_pmos ad=0.68p pd=4.68u as=0.68p ps=4.68u w=2u l=0.65u
X258 VSS a_1071_4709# a_1003_4745# VSS sg13_lv_nmos ad=0.19p pd=1.38u as=0.34p ps=2.68u w=1u l=0.13u
X259 VSS VSS VSS rppd l=0.5u w=0.5u
X260 VSS a_2380_8081# a_3009_8081# VSS sg13_lv_nmos ad=0.34p pd=2.68u as=0.19p ps=1.38u w=1u l=0.13u
X261 a_1369_6375# a_1267_6967# a_1267_5853# VDD sg13_lv_pmos ad=0.38p pd=2.38u as=0.38p ps=2.38u w=2u l=0.13u
X262 a_2584_8081# a_1267_8081# VSS VSS sg13_lv_nmos ad=0.34p pd=2.68u as=0.34p ps=2.68u w=1u l=0.13u
X263 a_917_6931# a_917_6931# VDD VDD sg13_lv_pmos ad=0.68p pd=4.68u as=0.68p ps=4.68u w=2u l=0.13u
X264 a_2907_5853# a_2584_5853# a_2805_6375# VDD sg13_lv_pmos ad=0.38p pd=2.38u as=0.38p ps=2.38u w=2u l=0.13u
X265 a_3521_6967# MEM VSS rppd l=0.5u w=0.5u
X266 VDD VDD VSS rhigh l=4u w=0.5u
X267 a_3521_10309# MEM VSS rppd l=0.5u w=0.5u
X268 a_917_8508# VX VSS VSS sg13_lv_nmos ad=0.34p pd=2.68u as=0.34p ps=2.68u w=1u l=0.13u
X269 a_1820_4745# COMP VDD VDD sg13_lv_pmos ad=0.38p pd=2.38u as=0.38p ps=2.38u w=2u l=0.13u
X270 a_4828_5366# MEM VSS VSS sg13_lv_nmos ad=0.19p pd=1.38u as=0.19p ps=1.38u w=1u l=0.13u
X271 a_1918_11577# a_2804_11753# VSS rhigh l=4u w=0.5u
X272 VDD VDD VSS rhigh l=4u w=0.5u
X273 a_2805_9917# a_1839_9195# VSS VSS sg13_lv_nmos ad=0.19p pd=1.38u as=0.34p ps=2.68u w=1u l=0.13u
X274 a_3521_8081# a_3317_8081# VDD VDD sg13_lv_pmos ad=0.38p pd=2.38u as=0.68p ps=4.68u w=2u l=0.13u
X275 a_3521_10309# a_3317_10309# VDD VDD sg13_lv_pmos ad=0.38p pd=2.38u as=0.68p ps=4.68u w=2u l=0.13u
X276 VSS VREF a_1941_9917# VSS sg13_lv_nmos ad=0.34p pd=2.68u as=0.19p ps=1.38u w=1u l=0.13u
X277 VSS VSS VSS rppd l=0.5u w=0.5u
X278 VSS VSS VSS rppd l=0.5u w=0.5u
X279 a_2584_10309# a_1267_10309# VDD VDD sg13_lv_pmos ad=0.68p pd=4.68u as=0.68p ps=4.68u w=2u l=0.13u
X280 a_3521_5853# a_3317_5853# VDD VDD sg13_lv_pmos ad=0.68p pd=4.68u as=0.38p ps=2.38u w=2u l=0.13u
X281 a_1369_7689# a_1267_8081# a_1267_6967# VSS sg13_lv_nmos ad=0.19p pd=1.38u as=0.19p ps=1.38u w=1u l=0.13u
X282 a_1941_6967# a_1839_8081# a_1839_6967# VDD sg13_lv_pmos ad=0.38p pd=2.38u as=0.38p ps=2.38u w=2u l=0.13u
X283 a_2769_4709# a_2840_5276# VDD VDD sg13_lv_pmos ad=0.38p pd=2.38u as=0.38p ps=2.38u w=2u l=0.13u
X284 VDD VDD VSS rhigh l=0.96u w=0.5u
X285 VDD VDD VSS rhigh l=0.96u w=0.5u
X286 a_2907_6967# a_1267_6967# a_2805_7689# VSS sg13_lv_nmos ad=0.19p pd=1.38u as=0.19p ps=1.38u w=1u l=0.13u
X287 VDD MEM a_4828_5366# VDD sg13_lv_pmos ad=0.68p pd=4.68u as=0.38p ps=2.38u w=2u l=0.13u
X288 VDD a_1479_4709# a_1071_4709# VDD sg13_lv_pmos ad=0.68p pd=4.68u as=0.68p ps=4.68u w=2u l=0.13u
X289 a_3317_5853# a_2907_5853# VDD VDD sg13_lv_pmos ad=0.68p pd=4.68u as=0.68p ps=4.68u w=2u l=0.13u
X290 VDD VDD VSS rhigh l=4u w=0.5u
X291 a_2805_10831# a_1839_10309# VDD VDD sg13_lv_pmos ad=0.38p pd=2.38u as=0.68p ps=4.68u w=2u l=0.13u
X292 a_1941_8081# a_1839_9195# a_1839_8081# VSS sg13_lv_nmos ad=0.19p pd=1.38u as=0.19p ps=1.38u w=1u l=0.13u
X293 a_1839_5853# a_1003_4745# VSS VSS sg13_lv_nmos ad=0.19p pd=1.38u as=0.34p ps=2.68u w=1u l=0.13u
C0 a_4351_8388# a_4351_8176# 0.02952f
C1 a_2907_10309# a_3009_10831# 0.21534f
C2 a_3967_9495# a_3967_9283# 0.02952f
C3 a_4735_9283# VDD 0.02679f
C4 a_2907_8081# a_2907_6967# 0.01112f
C5 a_1267_10309# a_1839_9195# 0.01073f
C6 a_2130_4709# VDD 0.69542f
C7 a_2584_6967# VDD 0.47283f
C8 a_2380_6967# VDD 0.52925f
C9 a_3037_11441# a_3037_11577# 0.29305f
C10 VREF a_1267_9195# 0.03021f
C11 a_1003_4745# a_1267_9195# 0.05713f
C12 VDD a_1941_9195# 0.2285f
C13 a_3521_8081# MEM 0.10901f
C14 a_1003_4745# RST 0.56156f
C15 a_3009_5853# a_2907_5853# 0.09917f
C16 MEM VDD 1.28834f
C17 a_2769_4709# a_2538_4709# 0.13146f
C18 a_2004_11753# a_2004_11577# 0.13024f
C19 a_2004_11753# VDD 0.07976f
C20 a_1820_4745# VDD 0.22534f
C21 a_1918_11577# a_2004_11753# 0.01534f
C22 a_3317_5853# a_2380_5853# 0.0172f
C23 a_1839_5853# a_1941_10831# 0.01749f
C24 a_2584_8081# a_1267_8081# 0.71451f
C25 a_1839_5853# a_917_6931# 0.45472f
C26 a_4351_7482# a_4735_7482# 0.01085f
C27 a_3521_5853# a_3317_5853# 0.40835f
C28 a_4735_7482# a_4735_7694# 0.02952f
C29 a_2805_6375# a_2907_5853# 0.20304f
C30 a_1369_7689# a_1267_6967# 0.09918f
C31 COMP a_3207_4709# 0.21872f
C32 a_2951_11577# a_3984_11577# 0.02622f
C33 a_2805_9917# a_1267_9195# 0.01675f
C34 a_1839_5853# a_2907_5853# 0.01788f
C35 a_5078_11441# VDD 0.04969f
C36 a_3967_8815# VDD 0.03382f
C37 a_3967_7267# a_4351_7267# 0.01085f
C38 a_5078_11753# a_5078_11933# 0.02961f
C39 a_2380_9195# a_1839_5853# 0.02077f
C40 a_1839_9195# a_1941_9195# 0.21287f
C41 a_3967_8603# a_3967_8815# 0.02952f
C42 a_1839_8081# a_1839_6967# 0.2476f
C43 a_4828_5366# MEM 0.46785f
C44 a_2584_6967# a_2805_6967# 0.04511f
C45 a_4351_7267# a_3521_6967# 0.024f
C46 a_1267_5853# a_1267_9195# 0.76752f
C47 a_1267_10309# a_1267_9195# 0.16819f
C48 a_1267_5853# a_3009_6375# 0.02044f
C49 a_5078_11577# a_5078_11441# 0.07033f
C50 a_1839_8081# a_1941_8603# 0.21415f
C51 a_1267_10309# a_1369_9195# 0.01956f
C52 a_3521_10309# VDD 0.78074f
C53 a_3037_11753# a_3037_11577# 0.13024f
C54 a_4351_5948# a_4351_6160# 0.02952f
C55 a_3009_5853# a_2584_5853# 0.04719f
C56 a_3521_10309# a_3317_10309# 0.40835f
C57 a_1839_8081# a_1941_6967# 0.01698f
C58 a_3009_10309# a_2907_10309# 0.0992f
C59 a_2004_11441# a_2004_11577# 0.29305f
C60 a_3009_9917# a_2907_9195# 0.09922f
C61 a_2004_11441# VDD 0.3171f
C62 a_3037_11577# a_2951_11577# 0.05268f
C63 a_2907_6967# a_3009_6967# 0.21534f
C64 a_3009_9917# a_2380_9195# 0.01182f
C65 SPIKE a_1071_4709# 0.12757f
C66 a_2805_6375# a_2584_5853# 0.04511f
C67 a_1839_5853# a_2584_5853# 0.20652f
C68 a_2380_8081# a_3009_8081# 0.01182f
C69 RST a_2130_4709# 0.16603f
C70 a_4351_6160# a_3967_6160# 0.01085f
C71 a_4735_7267# a_4735_7055# 0.02952f
C72 a_1267_9195# a_1941_9195# 0.01706f
C73 a_1839_6967# a_1839_5853# 0.61609f
C74 a_3967_7482# a_3967_7694# 0.02952f
C75 a_4735_11043# VDD 0.03374f
C76 a_2769_4709# a_2840_5276# 0.52069f
C77 VREF a_917_8508# 0.02133f
C78 a_917_8508# a_1003_4745# 0.15036f
C79 a_3037_11933# VDD 0.11493f
C80 a_2380_8081# a_2907_8081# 0.19723f
C81 a_1839_10309# a_1839_5853# 0.24859f
C82 a_1839_8081# a_2584_8081# 0.20243f
C83 a_2804_11753# VDD 0.09859f
C84 a_1820_4745# RST 0.05784f
C85 a_1839_8081# a_1267_8081# 0.8335f
C86 a_1839_9195# a_1941_9917# 0.09921f
C87 a_4351_11043# a_4735_11043# 0.01085f
C88 a_2951_11577# a_4070_11753# 0.02034f
C89 a_3967_8176# a_4351_8176# 0.01085f
C90 a_1267_5853# a_3317_5853# 0.01123f
C91 a_917_8508# a_1369_6375# 0.01186f
C92 a_2538_4709# a_2130_4709# 0.13318f
C93 a_1071_4709# a_1003_4745# 0.41602f
C94 a_4735_10616# a_4735_10831# 0.02872f
C95 COMP a_2380_5853# 0.02344f
C96 a_1839_8081# a_1941_7689# 0.02364f
C97 a_2907_5853# a_2380_5853# 0.19738f
C98 a_3521_8081# a_3521_6967# 0.02864f
C99 VDD a_3521_6967# 0.72163f
C100 a_2907_6967# a_2907_5853# 0.02097f
C101 COMP a_3521_5853# 0.03736f
C102 a_3521_5853# a_2907_5853# 0.01239f
C103 a_1267_6967# VDD 0.82439f
C104 SPIKE COMP 0.51954f
C105 a_1771_11577# a_971_11577# 0.01602f
C106 a_2380_10309# a_2380_9195# 0.03435f
C107 a_917_8508# a_1267_5853# 0.17251f
C108 SPIKE a_1692_4709# 0.24601f
C109 a_917_8508# a_1267_10309# 0.39966f
C110 a_2805_10831# a_2907_10309# 0.20304f
C111 a_3967_6587# VDD 0.03382f
C112 a_971_11753# a_971_11933# 0.12339f
C113 COMP a_2769_4709# 0.14498f
C114 a_971_11577# a_971_11441# 0.29305f
C115 VDD a_2584_9195# 0.47246f
C116 a_1941_6375# a_917_6931# 0.01325f
C117 a_3837_11577# a_3984_11577# 0.17314f
C118 a_2380_10309# a_2907_10309# 0.20088f
C119 a_1771_11577# a_885_11577# 0.02649f
C120 a_2584_8081# a_1839_5853# 0.01989f
C121 a_1267_8081# a_1839_5853# 0.25436f
C122 a_4351_9710# MEM 0.02643f
C123 a_4735_6587# a_4735_6375# 0.02952f
C124 a_1369_10831# VDD 0.23203f
C125 VREF VX 0.12926f
C126 a_1003_4745# VX 6.17095f
C127 COMP a_2897_5460# 0.04778f
C128 a_1369_8603# a_1267_8081# 0.2172f
C129 a_1003_4745# a_917_6931# 0.08895f
C130 VREF a_917_6931# 5.11101f
C131 a_2380_8081# a_3317_8081# 0.0172f
C132 VX a_885_11577# 0.06845f
C133 a_2907_10309# a_2584_10309# 0.3331f
C134 a_4351_7055# a_4735_7055# 0.01085f
C135 a_2584_5853# a_2380_5853# 0.83117f
C136 a_1839_9195# a_2584_9195# 0.20139f
C137 a_3521_8081# VDD 0.72163f
C138 a_2004_11577# VDD 0.07842f
C139 a_1918_11577# a_2004_11577# 0.01534f
C140 a_1918_11577# VDD 0.13803f
C141 VDD a_3009_8603# 0.22744f
C142 a_3037_11753# a_2951_11577# 0.02034f
C143 VDD a_3317_10309# 0.73387f
C144 a_3837_11577# a_3037_11577# 0.01566f
C145 a_4351_7482# a_4351_7694# 0.02952f
C146 a_1839_6967# a_2907_6967# 0.01463f