*********************************************************
*** NGSPICE file created by KLayout-PEX 0.3.7
*** -----------------------------------------------------
***     Extraction Engine: KPEX/2.5D
***     Technology: ihp_sg13g2
***     Date: 2026-03-05 19:27:23
*********************************************************

.SUBCKT LIF_neuron VDD SPIKE RST MEM VSS Vx Vref
xM$1 VSS \$9 \$8 VSS sg13_lv_nmos L=0.13U W=1U AS=0.34P AD=0.19P PS=2.68U
+ PD=1.38U
xM$2 \$44 \$10 VSS VSS sg13_lv_nmos L=0.13U W=1U AS=0.19P AD=0.19P PS=1.38U
+ PD=1.38U
xM$3 \$9 \$15 \$44 VSS sg13_lv_nmos L=0.13U W=1U AS=0.19P AD=0.34P PS=1.38U
+ PD=2.68U
xM$4 VSS \$11 \$10 VSS sg13_lv_nmos L=0.65U W=1U AS=0.34P AD=0.34P PS=2.68U
+ PD=2.68U
xM$5 VSS \$12 \$11 VSS sg13_lv_nmos L=0.65U W=1U AS=0.34P AD=0.34P PS=2.68U
+ PD=2.68U
xM$6 VSS \$13 \$12 VSS sg13_lv_nmos L=0.65U W=1U AS=0.34P AD=0.34P PS=2.68U
+ PD=2.68U
xM$7 VSS \$14 \$13 VSS sg13_lv_nmos L=0.65U W=1U AS=0.34P AD=0.34P PS=2.68U
+ PD=2.68U
xM$8 VSS \$15 \$14 VSS sg13_lv_nmos L=0.65U W=1U AS=0.34P AD=0.34P PS=2.68U
+ PD=2.68U
xM$9 VSS \$4 \$3 VSS sg13_lv_nmos L=0.13U W=1U AS=0.34P AD=0.19P PS=2.68U
+ PD=1.38U
xM$10 \$3 \$4 VSS VSS sg13_lv_nmos L=0.13U W=1U AS=0.19P AD=0.19P PS=1.38U
+ PD=1.38U
xM$11 VSS \$4 \$3 VSS sg13_lv_nmos L=0.13U W=1U AS=0.19P AD=0.34P PS=1.38U
+ PD=2.68U
xM$12 VSS \$5 \$4 VSS sg13_lv_nmos L=0.13U W=1U AS=0.34P AD=0.34P PS=2.68U
+ PD=2.68U
xM$13 VSS \$41 \$5 VSS sg13_lv_nmos L=0.13U W=1U AS=0.34P AD=0.19P PS=2.68U
+ PD=1.38U
xM$14 \$41 \$15 VSS VSS sg13_lv_nmos L=0.13U W=1U AS=0.19P AD=0.19P PS=1.38U
+ PD=1.38U
xM$15 VSS RST \$41 VSS sg13_lv_nmos L=0.13U W=1U AS=0.19P AD=0.34P PS=1.38U
+ PD=2.68U
xM$16 VSS \$7 SPIKE VSS sg13_lv_nmos L=0.13U W=1U AS=0.34P AD=0.19P PS=2.68U
+ PD=1.38U
xM$17 SPIKE \$7 VSS VSS sg13_lv_nmos L=0.13U W=1U AS=0.19P AD=0.19P PS=1.38U
+ PD=1.38U
xM$18 VSS \$7 SPIKE VSS sg13_lv_nmos L=0.13U W=1U AS=0.19P AD=0.34P PS=1.38U
+ PD=2.68U
xM$19 VSS \$8 \$7 VSS sg13_lv_nmos L=0.13U W=1U AS=0.34P AD=0.34P PS=2.68U
+ PD=2.68U
xM$20 \$15 \$16 VSS VSS sg13_lv_nmos L=0.13U W=1U AS=0.34P AD=0.19P PS=2.68U
+ PD=1.38U
xM$21 VSS \$16 \$15 VSS sg13_lv_nmos L=0.13U W=1U AS=0.19P AD=0.19P PS=1.38U
+ PD=1.38U
xM$22 \$16 MEM VSS VSS sg13_lv_nmos L=0.13U W=1U AS=0.19P AD=0.19P PS=1.38U
+ PD=1.38U
xM$23 VSS MEM \$16 VSS sg13_lv_nmos L=0.13U W=1U AS=0.19P AD=0.34P PS=1.38U
+ PD=2.68U
xM$24 \$138 Vref VSS VSS sg13_lv_nmos L=0.13U W=1U AS=0.34P AD=0.34P PS=2.68U
+ PD=2.68U
xM$25 \$130 VSS VSS VSS sg13_lv_nmos L=0.13U W=1U AS=0.34P AD=0.19P PS=2.68U
+ PD=1.38U
xM$26 \$166 \$164 \$130 VSS sg13_lv_nmos L=0.13U W=1U AS=0.19P AD=0.19P PS=1.38U
+ PD=1.38U
xM$27 VSS Vx \$166 VSS sg13_lv_nmos L=0.13U W=1U AS=0.19P AD=0.34P PS=1.38U
+ PD=2.68U
xM$28 \$76 \$3 VSS VSS sg13_lv_nmos L=0.13U W=1U AS=0.34P AD=0.19P PS=2.68U
+ PD=1.38U
xM$29 \$45 \$130 \$76 VSS sg13_lv_nmos L=0.13U W=1U AS=0.19P AD=0.19P PS=1.38U
+ PD=1.38U
xM$30 VSS Vx \$45 VSS sg13_lv_nmos L=0.13U W=1U AS=0.19P AD=0.34P PS=1.38U
+ PD=2.68U
xM$31 \$100 VSS VSS VSS sg13_lv_nmos L=0.13U W=1U AS=0.34P AD=0.19P PS=2.68U
+ PD=1.38U
xM$32 \$171 \$165 \$100 VSS sg13_lv_nmos L=0.13U W=1U AS=0.19P AD=0.19P PS=1.38U
+ PD=1.38U
xM$33 VSS Vref \$171 VSS sg13_lv_nmos L=0.13U W=1U AS=0.19P AD=0.34P PS=1.38U
+ PD=2.68U
xM$34 \$46 \$3 VSS VSS sg13_lv_nmos L=0.13U W=1U AS=0.34P AD=0.19P PS=2.68U
+ PD=1.38U
xM$35 \$47 \$100 \$46 VSS sg13_lv_nmos L=0.13U W=1U AS=0.19P AD=0.19P PS=1.38U
+ PD=1.38U
xM$36 VSS Vref \$47 VSS sg13_lv_nmos L=0.13U W=1U AS=0.19P AD=0.34P PS=1.38U
+ PD=2.68U
xM$37 \$48 \$46 VSS VSS sg13_lv_nmos L=0.13U W=1U AS=0.34P AD=0.34P PS=2.68U
+ PD=2.68U
xM$38 \$132 \$100 VSS VSS sg13_lv_nmos L=0.13U W=1U AS=0.34P AD=0.34P PS=2.68U
+ PD=2.68U
xM$39 \$77 \$76 VSS VSS sg13_lv_nmos L=0.13U W=1U AS=0.34P AD=0.34P PS=2.68U
+ PD=2.68U
xM$40 \$133 \$130 VSS VSS sg13_lv_nmos L=0.13U W=1U AS=0.34P AD=0.34P PS=2.68U
+ PD=2.68U
xM$41 \$172 \$100 VSS VSS sg13_lv_nmos L=0.13U W=1U AS=0.34P AD=0.19P PS=2.68U
+ PD=1.38U
xM$42 \$135 \$130 \$172 VSS sg13_lv_nmos L=0.13U W=1U AS=0.19P AD=0.19P PS=1.38U
+ PD=1.38U
xM$43 \$167 \$133 \$135 VSS sg13_lv_nmos L=0.13U W=1U AS=0.19P AD=0.19P PS=1.38U
+ PD=1.38U
xM$44 VSS \$132 \$167 VSS sg13_lv_nmos L=0.13U W=1U AS=0.19P AD=0.34P PS=1.38U
+ PD=2.68U
xM$45 \$49 \$46 VSS VSS sg13_lv_nmos L=0.13U W=1U AS=0.34P AD=0.19P PS=2.68U
+ PD=1.38U
xM$46 \$50 \$76 \$49 VSS sg13_lv_nmos L=0.13U W=1U AS=0.19P AD=0.19P PS=1.38U
+ PD=1.38U
xM$47 \$51 \$77 \$50 VSS sg13_lv_nmos L=0.13U W=1U AS=0.19P AD=0.19P PS=1.38U
+ PD=1.38U
xM$48 VSS \$48 \$51 VSS sg13_lv_nmos L=0.13U W=1U AS=0.19P AD=0.34P PS=1.38U
+ PD=2.68U
xM$49 \$140 \$135 VSS VSS sg13_lv_nmos L=0.13U W=1U AS=0.34P AD=0.34P PS=2.68U
+ PD=2.68U
xM$50 \$78 \$50 VSS VSS sg13_lv_nmos L=0.13U W=1U AS=0.34P AD=0.34P PS=2.68U
+ PD=2.68U
xM$51 \$137 \$140 VSS VSS sg13_lv_nmos L=0.13U W=1U AS=0.34P AD=0.19P PS=2.68U
+ PD=1.38U
xM$52 VSS \$140 \$137 VSS sg13_lv_nmos L=0.13U W=1U AS=0.19P AD=0.19P PS=1.38U
+ PD=1.38U
xM$53 \$137 \$140 VSS VSS sg13_lv_nmos L=0.13U W=1U AS=0.19P AD=0.34P PS=1.38U
+ PD=2.68U
xM$54 \$52 \$78 VSS VSS sg13_lv_nmos L=0.13U W=1U AS=0.34P AD=0.19P PS=2.68U
+ PD=1.38U
xM$55 VSS \$78 \$52 VSS sg13_lv_nmos L=0.13U W=1U AS=0.19P AD=0.19P PS=1.38U
+ PD=1.38U
xM$56 \$52 \$78 VSS VSS sg13_lv_nmos L=0.13U W=1U AS=0.19P AD=0.34P PS=1.38U
+ PD=2.68U
xM$57 \$196 Vx VSS VSS sg13_lv_nmos L=0.13U W=1U AS=0.34P AD=0.34P PS=2.68U
+ PD=2.68U
xM$58 \$164 \$3 VSS VSS sg13_lv_nmos L=0.13U W=1U AS=0.34P AD=0.19P PS=2.68U
+ PD=1.38U
xM$59 \$176 \$223 \$164 VSS sg13_lv_nmos L=0.13U W=1U AS=0.19P AD=0.19P PS=1.38U
+ PD=1.38U
xM$60 VSS Vx \$176 VSS sg13_lv_nmos L=0.13U W=1U AS=0.19P AD=0.34P PS=1.38U
+ PD=2.68U
xM$61 \$165 \$3 VSS VSS sg13_lv_nmos L=0.13U W=1U AS=0.34P AD=0.19P PS=2.68U
+ PD=1.38U
xM$62 \$197 \$255 \$165 VSS sg13_lv_nmos L=0.13U W=1U AS=0.19P AD=0.19P PS=1.38U
+ PD=1.38U
xM$63 VSS Vref \$197 VSS sg13_lv_nmos L=0.13U W=1U AS=0.19P AD=0.34P PS=1.38U
+ PD=2.68U
xM$64 \$198 \$165 VSS VSS sg13_lv_nmos L=0.13U W=1U AS=0.34P AD=0.34P PS=2.68U
+ PD=2.68U
xM$65 \$199 \$164 VSS VSS sg13_lv_nmos L=0.13U W=1U AS=0.34P AD=0.34P PS=2.68U
+ PD=2.68U
xM$66 \$177 \$165 VSS VSS sg13_lv_nmos L=0.13U W=1U AS=0.34P AD=0.19P PS=2.68U
+ PD=1.38U
xM$67 \$178 \$164 \$177 VSS sg13_lv_nmos L=0.13U W=1U AS=0.19P AD=0.19P PS=1.38U
+ PD=1.38U
xM$68 \$200 \$199 \$178 VSS sg13_lv_nmos L=0.13U W=1U AS=0.19P AD=0.19P PS=1.38U
+ PD=1.38U
xM$69 VSS \$198 \$200 VSS sg13_lv_nmos L=0.13U W=1U AS=0.19P AD=0.34P PS=1.38U
+ PD=2.68U
xM$70 \$201 \$178 VSS VSS sg13_lv_nmos L=0.13U W=1U AS=0.34P AD=0.34P PS=2.68U
+ PD=2.68U
xM$71 \$202 \$201 VSS VSS sg13_lv_nmos L=0.13U W=1U AS=0.34P AD=0.19P PS=2.68U
+ PD=1.38U
xM$72 VSS \$201 \$202 VSS sg13_lv_nmos L=0.13U W=1U AS=0.19P AD=0.19P PS=1.38U
+ PD=1.38U
xM$73 \$202 \$201 VSS VSS sg13_lv_nmos L=0.13U W=1U AS=0.19P AD=0.34P PS=1.38U
+ PD=2.68U
xM$74 \$223 VSS VSS VSS sg13_lv_nmos L=0.13U W=1U AS=0.34P AD=0.19P PS=2.68U
+ PD=1.38U
xM$75 \$291 \$286 \$223 VSS sg13_lv_nmos L=0.13U W=1U AS=0.19P AD=0.19P PS=1.38U
+ PD=1.38U
xM$76 VSS Vx \$291 VSS sg13_lv_nmos L=0.13U W=1U AS=0.19P AD=0.34P PS=1.38U
+ PD=2.68U
xM$77 \$286 \$3 VSS VSS sg13_lv_nmos L=0.13U W=1U AS=0.34P AD=0.19P PS=2.68U
+ PD=1.38U
xM$78 \$317 \$76 \$286 VSS sg13_lv_nmos L=0.13U W=1U AS=0.19P AD=0.19P PS=1.38U
+ PD=1.38U
xM$79 VSS Vx \$317 VSS sg13_lv_nmos L=0.13U W=1U AS=0.19P AD=0.34P PS=1.38U
+ PD=2.68U
xM$80 \$255 VSS VSS VSS sg13_lv_nmos L=0.13U W=1U AS=0.34P AD=0.19P PS=2.68U
+ PD=1.38U
xM$81 \$292 \$287 \$255 VSS sg13_lv_nmos L=0.13U W=1U AS=0.19P AD=0.19P PS=1.38U
+ PD=1.38U
xM$82 VSS Vref \$292 VSS sg13_lv_nmos L=0.13U W=1U AS=0.19P AD=0.34P PS=1.38U
+ PD=2.68U
xM$83 \$287 \$3 VSS VSS sg13_lv_nmos L=0.13U W=1U AS=0.34P AD=0.19P PS=2.68U
+ PD=1.38U
xM$84 \$298 \$46 \$287 VSS sg13_lv_nmos L=0.13U W=1U AS=0.19P AD=0.19P PS=1.38U
+ PD=1.38U
xM$85 VSS Vref \$298 VSS sg13_lv_nmos L=0.13U W=1U AS=0.19P AD=0.34P PS=1.38U
+ PD=2.68U
xM$86 \$261 \$255 VSS VSS sg13_lv_nmos L=0.13U W=1U AS=0.34P AD=0.34P PS=2.68U
+ PD=2.68U
xM$87 \$318 \$287 VSS VSS sg13_lv_nmos L=0.13U W=1U AS=0.34P AD=0.34P PS=2.68U
+ PD=2.68U
xM$88 \$319 \$286 VSS VSS sg13_lv_nmos L=0.13U W=1U AS=0.34P AD=0.34P PS=2.68U
+ PD=2.68U
xM$89 \$262 \$223 VSS VSS sg13_lv_nmos L=0.13U W=1U AS=0.34P AD=0.34P PS=2.68U
+ PD=2.68U
xM$90 \$293 \$255 VSS VSS sg13_lv_nmos L=0.13U W=1U AS=0.34P AD=0.19P PS=2.68U
+ PD=1.38U
xM$91 \$258 \$223 \$293 VSS sg13_lv_nmos L=0.13U W=1U AS=0.19P AD=0.19P PS=1.38U
+ PD=1.38U
xM$92 \$294 \$262 \$258 VSS sg13_lv_nmos L=0.13U W=1U AS=0.19P AD=0.19P PS=1.38U
+ PD=1.38U
xM$93 VSS \$261 \$294 VSS sg13_lv_nmos L=0.13U W=1U AS=0.19P AD=0.34P PS=1.38U
+ PD=2.68U
xM$94 \$320 \$287 VSS VSS sg13_lv_nmos L=0.13U W=1U AS=0.34P AD=0.19P PS=2.68U
+ PD=1.38U
xM$95 \$321 \$286 \$320 VSS sg13_lv_nmos L=0.13U W=1U AS=0.19P AD=0.19P PS=1.38U
+ PD=1.38U
xM$96 \$299 \$319 \$321 VSS sg13_lv_nmos L=0.13U W=1U AS=0.19P AD=0.19P PS=1.38U
+ PD=1.38U
xM$97 VSS \$318 \$299 VSS sg13_lv_nmos L=0.13U W=1U AS=0.19P AD=0.34P PS=1.38U
+ PD=2.68U
xM$98 \$263 \$258 VSS VSS sg13_lv_nmos L=0.13U W=1U AS=0.34P AD=0.34P PS=2.68U
+ PD=2.68U
xM$99 \$322 \$321 VSS VSS sg13_lv_nmos L=0.13U W=1U AS=0.34P AD=0.34P PS=2.68U
+ PD=2.68U
xM$100 \$300 \$322 VSS VSS sg13_lv_nmos L=0.13U W=1U AS=0.34P AD=0.19P PS=2.68U
+ PD=1.38U
xM$101 VSS \$322 \$300 VSS sg13_lv_nmos L=0.13U W=1U AS=0.19P AD=0.19P PS=1.38U
+ PD=1.38U
xM$102 \$300 \$322 VSS VSS sg13_lv_nmos L=0.13U W=1U AS=0.19P AD=0.34P PS=1.38U
+ PD=2.68U
xM$103 \$260 \$263 VSS VSS sg13_lv_nmos L=0.13U W=1U AS=0.34P AD=0.19P PS=2.68U
+ PD=1.38U
xM$104 VSS \$263 \$260 VSS sg13_lv_nmos L=0.13U W=1U AS=0.19P AD=0.19P PS=1.38U
+ PD=1.38U
xM$105 \$260 \$263 VSS VSS sg13_lv_nmos L=0.13U W=1U AS=0.19P AD=0.34P PS=1.38U
+ PD=2.68U
xM$106 VDD \$4 \$3 VDD sg13_lv_pmos L=0.13U W=2U AS=0.68P AD=0.38P PS=4.68U
+ PD=2.38U
xM$107 \$3 \$4 VDD VDD sg13_lv_pmos L=0.13U W=2U AS=0.38P AD=0.38P PS=2.38U
+ PD=2.38U
xM$108 VDD \$4 \$3 VDD sg13_lv_pmos L=0.13U W=2U AS=0.38P AD=0.68P PS=2.38U
+ PD=4.68U
xM$109 VDD \$5 \$4 VDD sg13_lv_pmos L=0.13U W=2U AS=0.68P AD=0.68P PS=4.68U
+ PD=4.68U
xM$110 VDD \$41 \$5 VDD sg13_lv_pmos L=0.13U W=2U AS=0.68P AD=0.38P PS=4.68U
+ PD=2.38U
xM$111 \$2 \$15 VDD VDD sg13_lv_pmos L=0.13U W=2U AS=0.38P AD=0.38P PS=2.38U
+ PD=2.38U
xM$112 \$41 RST \$2 VDD sg13_lv_pmos L=0.13U W=2U AS=0.38P AD=0.68P PS=2.38U
+ PD=4.68U
xM$113 VDD \$7 SPIKE VDD sg13_lv_pmos L=0.13U W=2U AS=0.68P AD=0.38P PS=4.68U
+ PD=2.38U
xM$114 SPIKE \$7 VDD VDD sg13_lv_pmos L=0.13U W=2U AS=0.38P AD=0.38P PS=2.38U
+ PD=2.38U
xM$115 VDD \$7 SPIKE VDD sg13_lv_pmos L=0.13U W=2U AS=0.38P AD=0.68P PS=2.38U
+ PD=4.68U
xM$116 VDD \$8 \$7 VDD sg13_lv_pmos L=0.13U W=2U AS=0.68P AD=0.68P PS=4.68U
+ PD=4.68U
xM$117 VDD \$9 \$8 VDD sg13_lv_pmos L=0.13U W=2U AS=0.68P AD=0.38P PS=4.68U
+ PD=2.38U
xM$118 \$9 \$10 VDD VDD sg13_lv_pmos L=0.13U W=2U AS=0.38P AD=0.38P PS=2.38U
+ PD=2.38U
xM$119 VDD \$15 \$9 VDD sg13_lv_pmos L=0.13U W=2U AS=0.38P AD=0.68P PS=2.38U
+ PD=4.68U
xM$120 VDD \$11 \$10 VDD sg13_lv_pmos L=0.65U W=2U AS=0.68P AD=0.68P PS=4.68U
+ PD=4.68U
xM$121 VDD \$12 \$11 VDD sg13_lv_pmos L=0.65U W=2U AS=0.68P AD=0.68P PS=4.68U
+ PD=4.68U
xM$122 VDD \$13 \$12 VDD sg13_lv_pmos L=0.65U W=2U AS=0.68P AD=0.68P PS=4.68U
+ PD=4.68U
xM$123 VDD \$14 \$13 VDD sg13_lv_pmos L=0.65U W=2U AS=0.68P AD=0.68P PS=4.68U
+ PD=4.68U
xM$124 VDD \$15 \$14 VDD sg13_lv_pmos L=0.65U W=2U AS=0.68P AD=0.68P PS=4.68U
+ PD=4.68U
xM$125 \$138 \$138 VDD VDD sg13_lv_pmos L=0.13U W=2U AS=0.68P AD=0.68P PS=4.68U
+ PD=4.68U
xM$126 \$130 VDD VDD VDD sg13_lv_pmos L=0.13U W=2U AS=0.68P AD=0.38P PS=4.68U
+ PD=2.38U
xM$127 \$139 \$164 \$130 VDD sg13_lv_pmos L=0.13U W=2U AS=0.38P AD=0.38P
+ PS=2.38U PD=2.38U
xM$128 VDD \$196 \$139 VDD sg13_lv_pmos L=0.13U W=2U AS=0.38P AD=0.68P PS=2.38U
+ PD=4.68U
xM$129 \$76 VDD VDD VDD sg13_lv_pmos L=0.13U W=2U AS=0.68P AD=0.38P PS=4.68U
+ PD=2.38U
xM$130 \$104 \$130 \$76 VDD sg13_lv_pmos L=0.13U W=2U AS=0.38P AD=0.38P PS=2.38U
+ PD=2.38U
xM$131 VDD \$196 \$104 VDD sg13_lv_pmos L=0.13U W=2U AS=0.38P AD=0.68P PS=2.38U
+ PD=4.68U
xM$132 \$100 VDD VDD VDD sg13_lv_pmos L=0.13U W=2U AS=0.68P AD=0.38P PS=4.68U
+ PD=2.38U
xM$133 \$131 \$165 \$100 VDD sg13_lv_pmos L=0.13U W=2U AS=0.38P AD=0.38P
+ PS=2.38U PD=2.38U
xM$134 VDD \$138 \$131 VDD sg13_lv_pmos L=0.13U W=2U AS=0.38P AD=0.68P PS=2.38U
+ PD=4.68U
xM$135 \$46 VDD VDD VDD sg13_lv_pmos L=0.13U W=2U AS=0.68P AD=0.38P PS=4.68U
+ PD=2.38U
xM$136 \$105 \$100 \$46 VDD sg13_lv_pmos L=0.13U W=2U AS=0.38P AD=0.38P PS=2.38U
+ PD=2.38U
xM$137 VDD \$138 \$105 VDD sg13_lv_pmos L=0.13U W=2U AS=0.38P AD=0.68P PS=2.38U
+ PD=4.68U
xM$138 \$48 \$46 VDD VDD sg13_lv_pmos L=0.13U W=2U AS=0.68P AD=0.68P PS=4.68U
+ PD=4.68U
xM$139 \$132 \$100 VDD VDD sg13_lv_pmos L=0.13U W=2U AS=0.68P AD=0.68P PS=4.68U
+ PD=4.68U
xM$140 \$77 \$76 VDD VDD sg13_lv_pmos L=0.13U W=2U AS=0.68P AD=0.68P PS=4.68U
+ PD=4.68U
xM$141 \$133 \$130 VDD VDD sg13_lv_pmos L=0.13U W=2U AS=0.68P AD=0.68P PS=4.68U
+ PD=4.68U
xM$142 \$134 \$100 VDD VDD sg13_lv_pmos L=0.13U W=2U AS=0.68P AD=0.38P PS=4.68U
+ PD=2.38U
xM$143 \$135 \$133 \$134 VDD sg13_lv_pmos L=0.13U W=2U AS=0.38P AD=0.38P
+ PS=2.38U PD=2.38U
xM$144 \$136 \$130 \$135 VDD sg13_lv_pmos L=0.13U W=2U AS=0.38P AD=0.38P
+ PS=2.38U PD=2.38U
xM$145 VDD \$132 \$136 VDD sg13_lv_pmos L=0.13U W=2U AS=0.38P AD=0.68P PS=2.38U
+ PD=4.68U
xM$146 \$106 \$46 VDD VDD sg13_lv_pmos L=0.13U W=2U AS=0.68P AD=0.38P PS=4.68U
+ PD=2.38U
xM$147 \$50 \$77 \$106 VDD sg13_lv_pmos L=0.13U W=2U AS=0.38P AD=0.38P PS=2.38U
+ PD=2.38U
xM$148 \$107 \$76 \$50 VDD sg13_lv_pmos L=0.13U W=2U AS=0.38P AD=0.38P PS=2.38U
+ PD=2.38U
xM$149 VDD \$48 \$107 VDD sg13_lv_pmos L=0.13U W=2U AS=0.38P AD=0.68P PS=2.38U
+ PD=4.68U
xM$150 \$140 \$135 VDD VDD sg13_lv_pmos L=0.13U W=2U AS=0.68P AD=0.68P PS=4.68U
+ PD=4.68U
xM$151 \$78 \$50 VDD VDD sg13_lv_pmos L=0.13U W=2U AS=0.68P AD=0.68P PS=4.68U
+ PD=4.68U
xM$152 \$52 \$78 VDD VDD sg13_lv_pmos L=0.13U W=2U AS=0.68P AD=0.38P PS=4.68U
+ PD=2.38U
xM$153 VDD \$78 \$52 VDD sg13_lv_pmos L=0.13U W=2U AS=0.38P AD=0.38P PS=2.38U
+ PD=2.38U
xM$154 \$52 \$78 VDD VDD sg13_lv_pmos L=0.13U W=2U AS=0.38P AD=0.68P PS=2.38U
+ PD=4.68U
xM$155 \$137 \$140 VDD VDD sg13_lv_pmos L=0.13U W=2U AS=0.68P AD=0.38P PS=4.68U
+ PD=2.38U
xM$156 VDD \$140 \$137 VDD sg13_lv_pmos L=0.13U W=2U AS=0.38P AD=0.38P PS=2.38U
+ PD=2.38U
xM$157 \$137 \$140 VDD VDD sg13_lv_pmos L=0.13U W=2U AS=0.38P AD=0.68P PS=2.38U
+ PD=4.68U
xM$158 \$15 \$16 VDD VDD sg13_lv_pmos L=0.13U W=2U AS=0.68P AD=0.38P PS=4.68U
+ PD=2.38U
xM$159 VDD \$16 \$15 VDD sg13_lv_pmos L=0.13U W=2U AS=0.38P AD=0.38P PS=2.38U
+ PD=2.38U
xM$160 \$16 MEM VDD VDD sg13_lv_pmos L=0.13U W=2U AS=0.38P AD=0.38P PS=2.38U
+ PD=2.38U
xM$161 VDD MEM \$16 VDD sg13_lv_pmos L=0.13U W=2U AS=0.38P AD=0.68P PS=2.38U
+ PD=4.68U
xM$162 \$196 \$196 VDD VDD sg13_lv_pmos L=0.13U W=2U AS=0.68P AD=0.68P PS=4.68U
+ PD=4.68U
xM$163 \$164 VDD VDD VDD sg13_lv_pmos L=0.13U W=2U AS=0.68P AD=0.38P PS=4.68U
+ PD=2.38U
xM$164 \$227 \$223 \$164 VDD sg13_lv_pmos L=0.13U W=2U AS=0.38P AD=0.38P
+ PS=2.38U PD=2.38U
xM$165 VDD \$196 \$227 VDD sg13_lv_pmos L=0.13U W=2U AS=0.38P AD=0.68P PS=2.38U
+ PD=4.68U
xM$166 \$165 VDD VDD VDD sg13_lv_pmos L=0.13U W=2U AS=0.68P AD=0.38P PS=4.68U
+ PD=2.38U
xM$167 \$228 \$255 \$165 VDD sg13_lv_pmos L=0.13U W=2U AS=0.38P AD=0.38P
+ PS=2.38U PD=2.38U
xM$168 VDD \$138 \$228 VDD sg13_lv_pmos L=0.13U W=2U AS=0.38P AD=0.68P PS=2.38U
+ PD=4.68U
xM$169 \$198 \$165 VDD VDD sg13_lv_pmos L=0.13U W=2U AS=0.68P AD=0.68P PS=4.68U
+ PD=4.68U
xM$170 \$199 \$164 VDD VDD sg13_lv_pmos L=0.13U W=2U AS=0.68P AD=0.68P PS=4.68U
+ PD=4.68U
xM$171 \$230 \$165 VDD VDD sg13_lv_pmos L=0.13U W=2U AS=0.68P AD=0.38P PS=4.68U
+ PD=2.38U
xM$172 \$178 \$199 \$230 VDD sg13_lv_pmos L=0.13U W=2U AS=0.38P AD=0.38P
+ PS=2.38U PD=2.38U
xM$173 \$229 \$164 \$178 VDD sg13_lv_pmos L=0.13U W=2U AS=0.38P AD=0.38P
+ PS=2.38U PD=2.38U
xM$174 VDD \$198 \$229 VDD sg13_lv_pmos L=0.13U W=2U AS=0.38P AD=0.68P PS=2.38U
+ PD=4.68U
xM$175 \$201 \$178 VDD VDD sg13_lv_pmos L=0.13U W=2U AS=0.68P AD=0.68P PS=4.68U
+ PD=4.68U
xM$176 \$202 \$201 VDD VDD sg13_lv_pmos L=0.13U W=2U AS=0.68P AD=0.38P PS=4.68U
+ PD=2.38U
xM$177 VDD \$201 \$202 VDD sg13_lv_pmos L=0.13U W=2U AS=0.38P AD=0.38P PS=2.38U
+ PD=2.38U
xM$178 \$202 \$201 VDD VDD sg13_lv_pmos L=0.13U W=2U AS=0.38P AD=0.68P PS=2.38U
+ PD=4.68U
xM$179 \$223 VDD VDD VDD sg13_lv_pmos L=0.13U W=2U AS=0.68P AD=0.38P PS=4.68U
+ PD=2.38U
xM$180 \$254 \$286 \$223 VDD sg13_lv_pmos L=0.13U W=2U AS=0.38P AD=0.38P
+ PS=2.38U PD=2.38U
xM$181 VDD \$196 \$254 VDD sg13_lv_pmos L=0.13U W=2U AS=0.38P AD=0.68P PS=2.38U
+ PD=4.68U
xM$182 \$286 VDD VDD VDD sg13_lv_pmos L=0.13U W=2U AS=0.68P AD=0.38P PS=4.68U
+ PD=2.38U
xM$183 \$345 \$76 \$286 VDD sg13_lv_pmos L=0.13U W=2U AS=0.38P AD=0.38P PS=2.38U
+ PD=2.38U
xM$184 VDD \$196 \$345 VDD sg13_lv_pmos L=0.13U W=2U AS=0.38P AD=0.68P PS=2.38U
+ PD=4.68U
xM$185 \$287 VDD VDD VDD sg13_lv_pmos L=0.13U W=2U AS=0.68P AD=0.38P PS=4.68U
+ PD=2.38U
xM$186 \$347 \$46 \$287 VDD sg13_lv_pmos L=0.13U W=2U AS=0.38P AD=0.38P PS=2.38U
+ PD=2.38U
xM$187 VDD \$138 \$347 VDD sg13_lv_pmos L=0.13U W=2U AS=0.38P AD=0.68P PS=2.38U
+ PD=4.68U
xM$188 \$255 VDD VDD VDD sg13_lv_pmos L=0.13U W=2U AS=0.68P AD=0.38P PS=4.68U
+ PD=2.38U
xM$189 \$256 \$287 \$255 VDD sg13_lv_pmos L=0.13U W=2U AS=0.38P AD=0.38P
+ PS=2.38U PD=2.38U
xM$190 VDD \$138 \$256 VDD sg13_lv_pmos L=0.13U W=2U AS=0.38P AD=0.68P PS=2.38U
+ PD=4.68U
xM$191 \$318 \$287 VDD VDD sg13_lv_pmos L=0.13U W=2U AS=0.68P AD=0.68P PS=4.68U
+ PD=4.68U
xM$192 \$261 \$255 VDD VDD sg13_lv_pmos L=0.13U W=2U AS=0.68P AD=0.68P PS=4.68U
+ PD=4.68U
xM$193 \$262 \$223 VDD VDD sg13_lv_pmos L=0.13U W=2U AS=0.68P AD=0.68P PS=4.68U
+ PD=4.68U
xM$194 \$319 \$286 VDD VDD sg13_lv_pmos L=0.13U W=2U AS=0.68P AD=0.68P PS=4.68U
+ PD=4.68U
xM$195 \$257 \$255 VDD VDD sg13_lv_pmos L=0.13U W=2U AS=0.68P AD=0.38P PS=4.68U
+ PD=2.38U
xM$196 \$258 \$262 \$257 VDD sg13_lv_pmos L=0.13U W=2U AS=0.38P AD=0.38P
+ PS=2.38U PD=2.38U
xM$197 \$259 \$223 \$258 VDD sg13_lv_pmos L=0.13U W=2U AS=0.38P AD=0.38P
+ PS=2.38U PD=2.38U
xM$198 VDD \$261 \$259 VDD sg13_lv_pmos L=0.13U W=2U AS=0.38P AD=0.68P PS=2.38U
+ PD=4.68U
xM$199 \$348 \$287 VDD VDD sg13_lv_pmos L=0.13U W=2U AS=0.68P AD=0.38P PS=4.68U
+ PD=2.38U
xM$200 \$321 \$319 \$348 VDD sg13_lv_pmos L=0.13U W=2U AS=0.38P AD=0.38P
+ PS=2.38U PD=2.38U
xM$201 \$346 \$286 \$321 VDD sg13_lv_pmos L=0.13U W=2U AS=0.38P AD=0.38P
+ PS=2.38U PD=2.38U
xM$202 VDD \$318 \$346 VDD sg13_lv_pmos L=0.13U W=2U AS=0.38P AD=0.68P PS=2.38U
+ PD=4.68U
xM$203 \$263 \$258 VDD VDD sg13_lv_pmos L=0.13U W=2U AS=0.68P AD=0.68P PS=4.68U
+ PD=4.68U
xM$204 \$322 \$321 VDD VDD sg13_lv_pmos L=0.13U W=2U AS=0.68P AD=0.68P PS=4.68U
+ PD=4.68U
xM$205 \$300 \$322 VDD VDD sg13_lv_pmos L=0.13U W=2U AS=0.68P AD=0.38P PS=4.68U
+ PD=2.38U
xM$206 VDD \$322 \$300 VDD sg13_lv_pmos L=0.13U W=2U AS=0.38P AD=0.38P PS=2.38U
+ PD=2.38U
xM$207 \$300 \$322 VDD VDD sg13_lv_pmos L=0.13U W=2U AS=0.38P AD=0.68P PS=2.38U
+ PD=4.68U
xM$208 \$260 \$263 VDD VDD sg13_lv_pmos L=0.13U W=2U AS=0.68P AD=0.38P PS=4.68U
+ PD=2.38U
xM$209 VDD \$263 \$260 VDD sg13_lv_pmos L=0.13U W=2U AS=0.38P AD=0.38P PS=2.38U
+ PD=2.38U
xM$210 \$260 \$263 VDD VDD sg13_lv_pmos L=0.13U W=2U AS=0.38P AD=0.68P PS=2.38U
+ PD=4.68U
xR$211 VSS VSS sub! rppd w=0.5 l=0.5 ps=0 b=0 m=1
xR$212 VSS VSS sub! rppd w=0.5 l=0.5 ps=0 b=0 m=1
xR$213 VSS VSS sub! rppd w=0.5 l=0.5 ps=0 b=0 m=1
xR$214 VSS VSS sub! rppd w=0.5 l=0.5 ps=0 b=0 m=1
xR$215 \$52 MEM sub! rppd w=0.5 l=0.5 ps=0 b=0 m=1
xR$216 VSS VSS sub! rppd w=0.5 l=0.5 ps=0 b=0 m=1
xR$217 VSS VSS sub! rppd w=0.5 l=0.5 ps=0 b=0 m=1
xR$218 \$52 MEM sub! rppd w=0.5 l=0.5 ps=0 b=0 m=1
xR$219 VSS VSS sub! rppd w=0.5 l=0.5 ps=0 b=0 m=1
xR$220 VSS VSS sub! rppd w=0.5 l=0.5 ps=0 b=0 m=1
xR$221 VSS VSS sub! rppd w=0.5 l=0.5 ps=0 b=0 m=1
xR$222 VSS VSS sub! rppd w=0.5 l=0.5 ps=0 b=0 m=1
xR$223 VSS VSS sub! rppd w=0.5 l=0.5 ps=0 b=0 m=1
xR$224 VSS VSS sub! rppd w=0.5 l=0.5 ps=0 b=0 m=1
xR$225 VSS VSS sub! rppd w=0.5 l=0.5 ps=0 b=0 m=1
xR$226 VSS VSS sub! rppd w=0.5 l=0.5 ps=0 b=0 m=1
xR$227 \$137 MEM sub! rppd w=0.5 l=0.5 ps=0 b=0 m=1
xR$228 VSS VSS sub! rppd w=0.5 l=0.5 ps=0 b=0 m=1
xR$229 VSS VSS sub! rppd w=0.5 l=0.5 ps=0 b=0 m=1
xR$230 \$137 MEM sub! rppd w=0.5 l=0.5 ps=0 b=0 m=1
xR$231 VSS VSS sub! rppd w=0.5 l=0.5 ps=0 b=0 m=1
xR$232 VSS VSS sub! rppd w=0.5 l=0.5 ps=0 b=0 m=1
xR$233 VSS VSS sub! rppd w=0.5 l=0.5 ps=0 b=0 m=1
xR$234 VSS VSS sub! rppd w=0.5 l=0.5 ps=0 b=0 m=1
xR$235 VSS VSS sub! rppd w=0.5 l=0.5 ps=0 b=0 m=1
xR$236 VSS VSS sub! rppd w=0.5 l=0.5 ps=0 b=0 m=1
xR$237 VSS VSS sub! rppd w=0.5 l=0.5 ps=0 b=0 m=1
xR$238 VSS VSS sub! rppd w=0.5 l=0.5 ps=0 b=0 m=1
xR$239 \$202 MEM sub! rppd w=0.5 l=0.5 ps=0 b=0 m=1
xR$240 VSS VSS sub! rppd w=0.5 l=0.5 ps=0 b=0 m=1
xR$241 VSS VSS sub! rppd w=0.5 l=0.5 ps=0 b=0 m=1
xR$242 \$202 MEM sub! rppd w=0.5 l=0.5 ps=0 b=0 m=1
xR$243 VSS VSS sub! rppd w=0.5 l=0.5 ps=0 b=0 m=1
xR$244 VSS VSS sub! rppd w=0.5 l=0.5 ps=0 b=0 m=1
xR$245 VSS VSS sub! rppd w=0.5 l=0.5 ps=0 b=0 m=1
xR$246 VSS VSS sub! rppd w=0.5 l=0.5 ps=0 b=0 m=1
xR$247 VSS VSS sub! rppd w=0.5 l=0.5 ps=0 b=0 m=1
xR$248 VSS VSS sub! rppd w=0.5 l=0.5 ps=0 b=0 m=1
xR$249 VSS VSS sub! rppd w=0.5 l=0.5 ps=0 b=0 m=1
xR$250 VSS VSS sub! rppd w=0.5 l=0.5 ps=0 b=0 m=1
xR$251 \$260 MEM sub! rppd w=0.5 l=0.5 ps=0 b=0 m=1
xR$252 VSS VSS sub! rppd w=0.5 l=0.5 ps=0 b=0 m=1
xR$253 VSS VSS sub! rppd w=0.5 l=0.5 ps=0 b=0 m=1
xR$254 \$260 MEM sub! rppd w=0.5 l=0.5 ps=0 b=0 m=1
xR$255 VSS VSS sub! rppd w=0.5 l=0.5 ps=0 b=0 m=1
xR$256 VSS VSS sub! rppd w=0.5 l=0.5 ps=0 b=0 m=1
xR$257 VSS VSS sub! rppd w=0.5 l=0.5 ps=0 b=0 m=1
xR$258 VSS VSS sub! rppd w=0.5 l=0.5 ps=0 b=0 m=1
xR$259 VSS VSS sub! rppd w=0.5 l=0.5 ps=0 b=0 m=1
xR$260 VSS VSS sub! rppd w=0.5 l=0.5 ps=0 b=0 m=1
xR$261 VSS VSS sub! rppd w=0.5 l=0.5 ps=0 b=0 m=1
xR$262 VSS VSS sub! rppd w=0.5 l=0.5 ps=0 b=0 m=1
xR$263 \$300 MEM sub! rppd w=0.5 l=0.5 ps=0 b=0 m=1
xR$264 VSS VSS sub! rppd w=0.5 l=0.5 ps=0 b=0 m=1
xR$265 VSS VSS sub! rppd w=0.5 l=0.5 ps=0 b=0 m=1
xR$266 \$300 MEM sub! rppd w=0.5 l=0.5 ps=0 b=0 m=1
xR$267 VSS VSS sub! rppd w=0.5 l=0.5 ps=0 b=0 m=1
xR$268 VSS VSS sub! rppd w=0.5 l=0.5 ps=0 b=0 m=1
xR$269 VSS VSS sub! rppd w=0.5 l=0.5 ps=0 b=0 m=1
xR$270 VSS VSS sub! rppd w=0.5 l=0.5 ps=0 b=0 m=1
xR$271 VDD VDD sub! rhigh w=0.5 l=4 ps=0 b=0 m=1
xR$272 VDD VDD sub! rhigh w=0.5 l=4 ps=0 b=0 m=1
xR$273 VDD VDD sub! rhigh w=0.5 l=4 ps=0 b=0 m=1
xR$274 VDD VDD sub! rhigh w=0.5 l=4 ps=0 b=0 m=1
xR$275 \$375 \$376 sub! rhigh w=0.5 l=4 ps=0 b=0 m=1
xR$276 \$377 \$375 sub! rhigh w=0.5 l=4 ps=0 b=0 m=1
xR$277 \$378 \$379 sub! rhigh w=0.5 l=4 ps=0 b=0 m=1
xR$278 \$380 \$378 sub! rhigh w=0.5 l=4 ps=0 b=0 m=1
xR$279 Vx \$376 sub! rhigh w=0.5 l=4 ps=0 b=0 m=1
xR$280 \$377 \$381 sub! rhigh w=0.5 l=4 ps=0 b=0 m=1
xR$281 \$381 \$379 sub! rhigh w=0.5 l=4 ps=0 b=0 m=1
xR$282 \$380 MEM sub! rhigh w=0.5 l=4 ps=0 b=0 m=1
xR$283 VDD VDD sub! rhigh w=0.5 l=4 ps=0 b=0 m=1
xR$284 VDD VDD sub! rhigh w=0.5 l=4 ps=0 b=0 m=1
xR$285 VDD VDD sub! rhigh w=0.5 l=4 ps=0 b=0 m=1
xR$286 VDD VDD sub! rhigh w=0.5 l=4 ps=0 b=0 m=1
Cext_1 \$10 \$11 169.877a
Cext_2 \$10 \$15 497.914a
Cext_3 \$10 \$41 0.0747556a
Cext_4 \$10 \$44 9.77118a
Cext_5 \$10 \$50 0.166316a
Cext_6 \$10 \$7 5.01123a
Cext_7 \$10 \$76 2.36416a
Cext_8 \$10 \$77 1.42153a
Cext_9 \$10 \$8 23.1623a
Cext_10 \$10 \$9 611.587a
Cext_11 \$10 RST 59.5139a
Cext_12 \$10 SPIKE 0.123586a
Cext_13 \$10 VDD 251.656a
Cext_14 \$10 VSS 85.8831a
Cext_15 \$10 sub! 371.953a
Cext_16 \$100 \$104 0.146273a
Cext_17 \$100 \$105 41.1301a
Cext_18 \$100 \$130 966.114a
Cext_19 \$100 \$131 207.365a
Cext_20 \$100 \$132 211.503a
Cext_21 \$100 \$133 267.592a
Cext_22 \$100 \$134 19.3541a
Cext_23 \$100 \$135 13.8067a
Cext_24 \$100 \$138 758.967a
Cext_25 \$100 \$139 0.135089a
Cext_26 \$100 \$164 9.30732a
Cext_27 \$100 \$165 265.902a
Cext_28 \$100 \$171 98.0717a
Cext_29 \$100 \$172 9.4977a
Cext_30 \$100 \$196 10.1452a
Cext_31 \$100 \$199 0.498248a
Cext_32 \$100 \$3 1.08403f
Cext_33 \$100 \$41 0.405347a
Cext_34 \$100 \$46 632.576a
Cext_35 \$100 \$47 21.937a
Cext_36 \$100 \$48 0.197475a
Cext_37 \$100 \$50 0.309799a
Cext_38 \$100 \$76 29.2121a
Cext_39 \$100 \$77 0.497612a
Cext_40 \$100 RST 0.855244a
Cext_41 \$100 SPIKE 6.77769a
Cext_42 \$100 VDD 563.33a
Cext_43 \$100 Vref 244.301a
Cext_44 \$100 VSS 268.741a
Cext_45 \$100 sub! 1.35228f
Cext_46 \$100 Vx 4.79911a
Cext_47 \$104 \$130 46.1099a
Cext_48 \$104 \$138 0.6349a
Cext_49 \$104 \$164 0.518582a
Cext_50 \$104 \$196 21.3883a
Cext_51 \$104 \$76 211.987a
Cext_52 \$104 VDD 236.006a
Cext_53 \$104 sub! 29.68a
Cext_54 \$105 \$130 0.391907a
Cext_55 \$105 \$138 22.3293a
Cext_56 \$105 \$165 0.518582a
Cext_57 \$105 \$46 211.829a
Cext_58 \$105 \$76 11.9453a
Cext_59 \$105 VDD 237.778a
Cext_60 \$105 sub! 29.5864a
Cext_61 \$106 \$130 0.124398a
Cext_62 \$106 \$133 0.233118a
Cext_63 \$106 \$46 20.4947a
Cext_64 \$106 \$49 0.185029a
Cext_65 \$106 \$50 199.584a
Cext_66 \$106 \$76 2.58383a
Cext_67 \$106 \$77 56.0763a
Cext_68 \$106 VDD 216.886a
Cext_69 \$106 sub! 27.9851a
Cext_70 \$107 \$133 0.184706a
Cext_71 \$107 \$135 0.482027a
Cext_72 \$107 \$46 0.597278a
Cext_73 \$107 \$48 19.659a
Cext_74 \$107 \$50 210.077a
Cext_75 \$107 \$51 0.185029a
Cext_76 \$107 \$76 29.198a
Cext_77 \$107 \$77 3.56119a
Cext_78 \$107 VDD 252.053a
Cext_79 \$107 sub! 29.9313a
Cext_80 \$11 \$12 225.704a
Cext_81 \$11 \$15 251.602a
Cext_82 \$11 \$50 7.43145a
Cext_83 \$11 \$78 2.16766a
Cext_84 \$11 \$9 4.86874a
Cext_85 \$11 RST 106.65a
Cext_86 \$11 SPIKE 0.274934a
Cext_87 \$11 VDD 329.15a
Cext_88 \$11 VSS 202.436a
Cext_89 \$11 sub! 809.785a
Cext_90 \$12 \$13 225.489a
Cext_91 \$12 \$15 204.648a
Cext_92 \$12 \$52 1.6466a
Cext_93 \$12 \$78 8.41194a
Cext_94 \$12 \$9 0.666148a
Cext_95 \$12 RST 105.45a
Cext_96 \$12 SPIKE 0.159809a
Cext_97 \$12 VDD 332.925a
Cext_98 \$12 VSS 205.104a
Cext_99 \$12 sub! 808.074a
Cext_100 \$13 \$14 227.399a
Cext_101 \$13 \$15 198.731a
Cext_102 \$13 \$52 3.23399a
Cext_103 \$13 \$9 0.318527a
Cext_104 \$13 RST 106.333a
Cext_105 \$13 VDD 336.002a
Cext_106 \$13 VSS 209.838a
Cext_107 \$13 sub! 810.951a
Cext_108 \$130 \$131 13.0381a
Cext_109 \$130 \$132 692.9a
Cext_110 \$130 \$133 840.967a
Cext_111 \$130 \$134 1.61039a
Cext_112 \$130 \$135 396.474a
Cext_113 \$130 \$136 28.5519a
Cext_114 \$130 \$138 145.352a
Cext_115 \$130 \$139 218.223a
Cext_116 \$130 \$140 9.09611a
Cext_117 \$130 \$164 253.17a
Cext_118 \$130 \$165 6.81589a
Cext_119 \$130 \$166 98.0717a
Cext_120 \$130 \$172 21.2936a
Cext_121 \$130 \$196 539.849a
Cext_122 \$130 \$198 1.19087a
Cext_123 \$130 \$199 0.588839a
Cext_124 \$130 \$3 101.823a
Cext_125 \$130 \$4 1.02968a
Cext_126 \$130 \$45 20.7687a
Cext_127 \$130 \$46 359.18a
Cext_128 \$130 \$48 0.699405a
Cext_129 \$130 \$50 0.865932a
Cext_130 \$130 \$76 619.807a
Cext_131 \$130 \$77 0.379159a
Cext_132 \$130 SPIKE 0.465718a
Cext_133 \$130 VDD 588.037a
Cext_134 \$130 Vref 54.2387a
Cext_135 \$130 VSS 272.847a
Cext_136 \$130 sub! 1.41646f
Cext_137 \$130 Vx 208.374a
Cext_138 \$131 \$138 24.1635a
Cext_139 \$131 \$165 30.2471a
Cext_140 \$131 \$46 0.712711a
Cext_141 \$131 \$76 0.915371a
Cext_142 \$131 VDD 238.366a
Cext_143 \$131 sub! 30.4539a
Cext_144 \$132 \$133 862.212a
Cext_145 \$132 \$135 235.204a
Cext_146 \$132 \$136 19.6231a
Cext_147 \$132 \$137 1.38144a
Cext_148 \$132 \$138 1.1535a
Cext_149 \$132 \$140 18.2166a
Cext_150 \$132 \$164 0.862943a
Cext_151 \$132 \$165 1.03186a
Cext_152 \$132 \$167 18.6588a
Cext_153 \$132 \$171 0.167938a
Cext_154 \$132 \$172 7.88112a
Cext_155 \$132 \$198 35.4785a
Cext_156 \$132 \$200 0.254046a
Cext_157 \$132 \$46 20.3058a
Cext_158 \$132 \$48 4.86902a
Cext_159 \$132 \$50 0.865932a
Cext_160 \$132 \$76 0.915371a
Cext_161 \$132 VDD 476.063a
Cext_162 \$132 Vref 8.1416a
Cext_163 \$132 VSS 310.813a
Cext_164 \$132 sub! 505.195a
Cext_165 \$133 \$134 57.2982a
Cext_166 \$133 \$135 358.871a
Cext_167 \$133 \$136 3.56119a
Cext_168 \$133 \$137 1.86333a
Cext_169 \$133 \$138 0.52211a
Cext_170 \$133 \$140 4.39311a
Cext_171 \$133 \$164 0.588839a
Cext_172 \$133 \$165 1.6378a
Cext_173 \$133 \$167 49.7752a
Cext_174 \$133 \$172 12.6372a
Cext_175 \$133 \$177 0.401837a
Cext_176 \$133 \$178 0.443406a
Cext_177 \$133 \$199 74.5299a
Cext_178 \$133 \$200 0.110852a
Cext_179 \$133 \$46 19.7997a
Cext_180 \$133 \$76 0.379159a
Cext_181 \$133 \$77 8.85402a
Cext_182 \$133 VDD 380.424a
Cext_183 \$133 Vref 0.289989a
Cext_184 \$133 VSS 262.635a
Cext_185 \$133 sub! 429.165a
Cext_186 \$133 Vx 0.249803a
Cext_187 \$134 \$135 200.016a
Cext_188 \$134 \$172 0.185029a
Cext_189 \$134 \$46 1.32314a
Cext_190 \$134 \$76 0.124398a
Cext_191 \$134 \$77 0.233118a
Cext_192 \$134 VDD 218.084a
Cext_193 \$134 sub! 28.5986a
Cext_194 \$135 \$136 210.642a
Cext_195 \$135 \$137 10.6747a
Cext_196 \$135 \$140 201.584a
Cext_197 \$135 \$165 0.341988a
Cext_198 \$135 \$167 98.0717a
Cext_199 \$135 \$172 98.0717a
Cext_200 \$135 \$178 10.7813a
Cext_201 \$135 \$199 0.443406a
Cext_202 \$135 \$46 1.99168a
Cext_203 \$135 \$48 0.727383a
Cext_204 \$135 \$50 20.202a
Cext_205 \$135 \$76 0.865932a
Cext_206 \$135 VDD 90.4777a
Cext_207 \$135 VSS 82.0775a
Cext_208 \$135 sub! 563.45a
Cext_209 \$136 \$167 0.185029a
Cext_210 \$136 \$46 0.841819a
Cext_211 \$136 \$50 0.482027a
Cext_212 \$136 \$77 0.184706a
Cext_213 \$136 VDD 252.721a
Cext_214 \$136 sub! 30.3212a
Cext_215 \$137 \$138 0.221681a
Cext_216 \$137 \$140 464.216a
Cext_217 \$137 \$201 1.37487a
Cext_218 \$137 \$202 28.7587a
Cext_219 \$137 \$46 0.338941a
Cext_220 \$137 \$52 36.2613a
Cext_221 \$137 \$78 1.70191a
Cext_222 \$137 MEM 134.851a
Cext_223 \$137 VDD 650.51a
Cext_224 \$137 VSS 803.393a
Cext_225 \$137 sub! 576.099a
Cext_226 \$138 \$139 1.96705a
Cext_227 \$138 \$164 30.9917a
Cext_228 \$138 \$165 534.263a
Cext_229 \$138 \$171 0.7041a
Cext_230 \$138 \$196 45.1129a
Cext_231 \$138 \$197 1.82883a
Cext_232 \$138 \$198 0.867582a
Cext_233 \$138 \$199 0.168207a
Cext_234 \$138 \$223 30.6623a
Cext_235 \$138 \$228 22.1768a
Cext_236 \$138 \$255 742.72a
Cext_237 \$138 \$256 22.5483a
Cext_238 \$138 \$261 1.14995a
Cext_239 \$138 \$262 0.168207a
Cext_240 \$138 \$286 12.378a
Cext_241 \$138 \$287 578.386a