* PEX produced on Mon Mar 23 09:47:19 PM CET 2026 using /foss/tools/sak/sak-pex.sh with m=2 and s=1
* NGSPICE file created from TOP_ROILIFNEURON.ext - technology: ihp-sg13g2

.subckt TOP_ROILIFNEURON VDD Vx MEM RST SPIKEB VSS Vref COMPB
X0 VSS a_2538_4709# a_2130_4709# VSS sg13_lv_nmos ad=0.34p pd=2.68u as=0.34p ps=2.68u w=1u l=0.13u
X1 COMPB a_6770_4732# VSS VSS sg13_lv_nmos ad=0.912p pd=5.18u as=0.912p ps=5.18u w=4.8u l=0.13u
X2 VSS a_n4986_6715# SPIKEB VSS sg13_lv_nmos ad=0.912p pd=5.18u as=0.912p ps=5.18u w=4.8u l=0.13u
X3 a_3521_9195# a_3317_9195# VSS VSS sg13_lv_nmos ad=0.19p pd=1.38u as=0.34p ps=2.68u w=1u l=0.13u
X4 VDD a_1071_4709# a_1003_4745# w_889_4565# sg13_lv_pmos ad=0.38p pd=2.38u as=0.68p ps=4.68u w=2u l=0.13u
X5 SPIKEB a_n4986_6715# VDD VDD sg13_lv_pmos ad=1.824p pd=9.98u as=1.824p ps=9.98u w=9.6u l=0.13u
X6 SPIKEB a_n4986_6715# VDD VDD sg13_lv_pmos ad=1.824p pd=9.98u as=1.824p ps=9.98u w=9.6u l=0.13u
X7 VDD a_n4986_6715# SPIKEB VDD sg13_lv_pmos ad=1.824p pd=9.98u as=1.824p ps=9.98u w=9.6u l=0.13u
X8 VSS a_2130_4709# a_n553_4696# VSS sg13_lv_nmos ad=0.19p pd=1.38u as=0.34p ps=2.68u w=1u l=0.13u
X9 VSS a_n4986_6715# SPIKEB VSS sg13_lv_nmos ad=0.912p pd=5.18u as=0.912p ps=5.18u w=4.8u l=0.13u
X10 VSS a_2769_4709# a_2538_4709# VSS sg13_lv_nmos ad=0.19p pd=1.38u as=0.34p ps=2.68u w=1u l=0.13u
X11 VSS VSS VSS rppd l=0.5u w=0.5u
X12 COMPB a_6770_4732# VDD VDD sg13_lv_pmos ad=1.824p pd=9.98u as=1.824p ps=9.98u w=9.6u l=0.13u
X13 VSS a_n4986_6715# SPIKEB VSS sg13_lv_nmos ad=0.912p pd=5.18u as=0.912p ps=5.18u w=4.8u l=0.13u
X14 COMPB a_6770_4732# VSS VSS sg13_lv_nmos ad=0.912p pd=5.18u as=0.912p ps=5.18u w=4.8u l=0.13u
X15 VDD a_n1715_6811# a_n4986_6715# VDD sg13_lv_pmos ad=3.264p pd=19.88u as=1.824p ps=9.98u w=9.6u l=0.13u
X16 a_3521_6967# a_3317_6967# VSS VSS sg13_lv_nmos ad=0.34p pd=2.68u as=0.19p ps=1.38u w=1u l=0.13u
X17 a_6276_9217# a_1755_5366# VDD VDD sg13_lv_pmos ad=3.264p pd=19.88u as=3.264p ps=19.88u w=9.6u l=0.13u
X18 VSS VSS VSS rppd l=0.5u w=0.5u
X19 COMPB a_6770_4732# VDD VDD sg13_lv_pmos ad=1.824p pd=9.98u as=1.824p ps=9.98u w=9.6u l=0.13u
X20 COMPB a_6770_4732# VSS VSS sg13_lv_nmos ad=0.912p pd=5.18u as=0.912p ps=5.18u w=4.8u l=0.13u
X21 VSS a_3545_4709# a_3207_4709# VSS sg13_lv_nmos ad=0.34p pd=2.68u as=0.34p ps=2.68u w=1u l=0.65u
X22 VSS VSS VSS rppd l=0.5u w=0.5u
X23 VSS VSS VSS rppd l=0.5u w=0.5u
X24 a_1369_6967# a_1267_8081# a_1267_6967# w_787_6793# sg13_lv_pmos ad=0.38p pd=2.38u as=0.38p ps=2.38u w=2u l=0.13u
X25 VSS VSS VSS rppd l=0.5u w=0.5u
X26 VDD VDD VSS rhigh l=0.96u w=0.5u
X27 a_4828_5366# MEM VDD w_889_4565# sg13_lv_pmos ad=0.38p pd=2.38u as=0.38p ps=2.38u w=2u l=0.13u
X28 SPIKEB a_n4986_6715# VSS VSS sg13_lv_nmos ad=0.912p pd=5.18u as=0.912p ps=5.18u w=4.8u l=0.13u
X29 a_3317_6967# a_2907_6967# VSS VSS sg13_lv_nmos ad=0.34p pd=2.68u as=0.34p ps=2.68u w=1u l=0.13u
X30 VDD a_917_8508# a_1369_9195# w_787_8528# sg13_lv_pmos ad=0.68p pd=4.68u as=0.38p ps=2.38u w=2u l=0.13u
X31 a_2907_6967# a_2584_6967# a_2805_6967# w_787_6793# sg13_lv_pmos ad=0.38p pd=2.38u as=0.38p ps=2.38u w=2u l=0.13u
X32 a_2907_10309# a_2584_10309# a_2805_10831# w_783_10756# sg13_lv_pmos ad=0.38p pd=2.38u as=0.38p ps=2.38u w=2u l=0.13u
X33 VSS a_6770_4732# COMPB VSS sg13_lv_nmos ad=0.912p pd=5.18u as=0.912p ps=5.18u w=4.8u l=0.13u
X34 a_1369_10309# a_1267_5853# a_1267_10309# VSS sg13_lv_nmos ad=0.19p pd=1.38u as=0.19p ps=1.38u w=1u l=0.13u
X35 VDD a_n4986_6715# SPIKEB VDD sg13_lv_pmos ad=1.824p pd=9.98u as=1.824p ps=9.98u w=9.6u l=0.13u
X36 VDD a_n4986_6715# SPIKEB VDD sg13_lv_pmos ad=1.824p pd=9.98u as=1.824p ps=9.98u w=9.6u l=0.13u
X37 a_3009_9195# a_1267_9195# a_2907_9195# w_787_8528# sg13_lv_pmos ad=0.38p pd=2.38u as=0.38p ps=2.38u w=2u l=0.13u
X38 a_3521_8081# MEM VSS rppd l=0.5u w=0.5u
X39 a_1267_5853# a_1003_4745# VSS VSS sg13_lv_nmos ad=0.19p pd=1.38u as=0.34p ps=2.68u w=1u l=0.13u
X40 a_n4986_6715# a_n1715_6811# VDD VDD sg13_lv_pmos ad=1.824p pd=9.98u as=1.824p ps=9.98u w=9.6u l=0.13u
X41 VSS a_n4986_6715# SPIKEB VSS sg13_lv_nmos ad=0.912p pd=5.18u as=0.912p ps=5.18u w=4.8u l=0.13u
X42 a_1839_8081# VDD VDD w_787_8528# sg13_lv_pmos ad=0.38p pd=2.38u as=0.68p ps=4.68u w=2u l=0.13u
X43 VSS a_6770_4732# COMPB VSS sg13_lv_nmos ad=0.912p pd=5.18u as=0.912p ps=5.18u w=4.8u l=0.13u
X44 SPIKEB a_n4986_6715# VSS VSS sg13_lv_nmos ad=0.912p pd=5.18u as=0.912p ps=5.18u w=4.8u l=0.13u
X45 VDD a_n1715_6811# a_n4986_6715# VDD sg13_lv_pmos ad=1.824p pd=9.98u as=1.824p ps=9.98u w=9.6u l=0.13u
X46 a_1369_8081# a_1267_9195# a_1267_8081# VSS sg13_lv_nmos ad=0.19p pd=1.38u as=0.19p ps=1.38u w=1u l=0.13u
X47 VDD a_3883_4709# a_3545_4709# w_889_4565# sg13_lv_pmos ad=0.68p pd=4.68u as=0.68p ps=4.68u w=2u l=0.65u
X48 VDD a_1755_5366# a_4221_4709# w_889_4565# sg13_lv_pmos ad=0.68p pd=4.68u as=0.68p ps=4.68u w=2u l=0.65u
X49 COMPB a_6770_4732# VDD VDD sg13_lv_pmos ad=1.824p pd=9.98u as=1.824p ps=9.98u w=9.6u l=0.13u
X50 VSS VSS VSS rppd l=0.5u w=0.5u
X51 VSS RST a_1692_4709# VSS sg13_lv_nmos ad=0.34p pd=2.68u as=0.19p ps=1.38u w=1u l=0.13u
X52 VDD a_6770_4732# COMPB VDD sg13_lv_pmos ad=1.824p pd=9.98u as=1.824p ps=9.98u w=9.6u l=0.13u
X53 VSS a_6362_8126# a_6770_4732# VSS sg13_lv_nmos ad=0.912p pd=5.18u as=0.912p ps=5.18u w=4.8u l=0.13u
X54 a_2907_8081# a_1267_8081# a_2805_8081# VSS sg13_lv_nmos ad=0.19p pd=1.38u as=0.19p ps=1.38u w=1u l=0.13u
X55 SPIKEB a_n4986_6715# VDD VDD sg13_lv_pmos ad=1.824p pd=9.98u as=1.824p ps=9.98u w=9.6u l=0.13u
X56 VSS VSS VSS rppd l=0.5u w=0.5u
X57 SPIKEB a_n4986_6715# VSS VSS sg13_lv_nmos ad=0.912p pd=5.18u as=0.912p ps=5.18u w=4.8u l=0.13u
X58 COMPB a_6770_4732# VDD VDD sg13_lv_pmos ad=1.824p pd=9.98u as=1.824p ps=9.98u w=9.6u l=0.13u
X59 VSS a_4828_5366# a_1755_5366# VSS sg13_lv_nmos ad=0.19p pd=1.38u as=0.19p ps=1.38u w=1u l=0.13u
X60 VSS a_n4986_6715# SPIKEB VSS sg13_lv_nmos ad=0.912p pd=5.18u as=0.912p ps=5.18u w=4.8u l=0.13u
X61 VDD a_6276_9217# a_6362_8126# VDD sg13_lv_pmos ad=1.824p pd=9.98u as=1.824p ps=9.98u w=9.6u l=0.13u
X62 VDD a_6362_8126# a_6770_4732# VDD sg13_lv_pmos ad=1.824p pd=9.98u as=1.824p ps=9.98u w=9.6u l=0.13u
X63 VDD a_6770_4732# COMPB VDD sg13_lv_pmos ad=1.824p pd=9.98u as=1.824p ps=9.98u w=9.6u l=0.13u
X64 VDD a_n1715_6811# a_n4986_6715# VDD sg13_lv_pmos ad=1.824p pd=9.98u as=1.824p ps=9.98u w=9.6u l=0.13u
X65 a_6362_8126# a_6276_9217# VDD VDD sg13_lv_pmos ad=1.824p pd=9.98u as=3.264p ps=19.88u w=9.6u l=0.13u
X66 a_3521_6967# a_3317_6967# VDD w_787_6793# sg13_lv_pmos ad=0.68p pd=4.68u as=0.38p ps=2.38u w=2u l=0.13u
X67 a_n1715_6811# a_n899_9217# VDD VDD sg13_lv_pmos ad=1.824p pd=9.98u as=1.824p ps=9.98u w=9.6u l=0.13u
X68 a_3521_10309# a_3317_10309# VSS VSS sg13_lv_nmos ad=0.19p pd=1.38u as=0.34p ps=2.68u w=1u l=0.13u
X69 VDD a_2538_4709# a_2130_4709# w_889_4565# sg13_lv_pmos ad=0.68p pd=4.68u as=0.68p ps=4.68u w=2u l=0.13u
X70 a_6770_4732# a_6362_8126# VSS VSS sg13_lv_nmos ad=0.912p pd=5.18u as=0.912p ps=5.18u w=4.8u l=0.13u
X71 a_2584_10309# a_1267_10309# VSS VSS sg13_lv_nmos ad=0.34p pd=2.68u as=0.34p ps=2.68u w=1u l=0.13u
X72 VSS a_n4986_6715# SPIKEB VSS sg13_lv_nmos ad=0.912p pd=5.18u as=0.912p ps=5.18u w=4.8u l=0.13u
X73 SPIKEB a_n4986_6715# VSS VSS sg13_lv_nmos ad=0.912p pd=5.18u as=0.912p ps=5.18u w=4.8u l=0.13u
X74 VSS a_3317_5853# a_3521_5853# VSS sg13_lv_nmos ad=0.19p pd=1.38u as=0.19p ps=1.38u w=1u l=0.13u
X75 a_3317_6967# a_2907_6967# VDD w_787_6793# sg13_lv_pmos ad=0.68p pd=4.68u as=0.68p ps=4.68u w=2u l=0.13u
X76 a_1839_9195# VSS VSS VSS sg13_lv_nmos ad=0.19p pd=1.38u as=0.34p ps=2.68u w=1u l=0.13u
X77 a_6362_8126# a_6276_9217# VSS VSS sg13_lv_nmos ad=0.912p pd=5.18u as=0.912p ps=5.18u w=4.8u l=0.13u
X78 VDD a_n4986_6715# SPIKEB VDD sg13_lv_pmos ad=1.824p pd=9.98u as=1.824p ps=9.98u w=9.6u l=0.13u
X79 VDD a_2130_4709# a_n553_4696# w_889_4565# sg13_lv_pmos ad=0.38p pd=2.38u as=0.68p ps=4.68u w=2u l=0.13u
X80 VDD a_n4986_6715# SPIKEB VDD sg13_lv_pmos ad=1.824p pd=9.98u as=1.824p ps=9.98u w=9.6u l=0.13u
X81 a_3521_8081# a_3317_8081# VSS VSS sg13_lv_nmos ad=0.34p pd=2.68u as=0.19p ps=1.38u w=1u l=0.13u
X82 a_n4986_6715# a_n1715_6811# VDD VDD sg13_lv_pmos ad=1.824p pd=9.98u as=1.824p ps=9.98u w=9.6u l=0.13u
X83 SPIKEB a_n4986_6715# VDD VDD sg13_lv_pmos ad=1.824p pd=9.98u as=1.824p ps=9.98u w=9.6u l=0.13u
X84 VSS a_n899_9217# a_n1715_6811# VSS sg13_lv_nmos ad=1.632p pd=10.28u as=0.912p ps=5.18u w=4.8u l=0.13u
X85 a_1267_8081# VDD VDD w_787_8528# sg13_lv_pmos ad=0.38p pd=2.38u as=0.68p ps=4.68u w=2u l=0.13u
X86 a_n4986_6715# a_n1715_6811# VSS VSS sg13_lv_nmos ad=0.912p pd=5.18u as=0.912p ps=5.18u w=4.8u l=0.13u
X87 VDD a_n1715_6811# a_n4986_6715# VDD sg13_lv_pmos ad=1.824p pd=9.98u as=1.824p ps=9.98u w=9.6u l=0.13u
X88 VDD a_6770_4732# COMPB VDD sg13_lv_pmos ad=1.824p pd=9.98u as=1.824p ps=9.98u w=9.6u l=0.13u
X89 VSS a_n1715_6811# a_n4986_6715# VSS sg13_lv_nmos ad=0.912p pd=5.18u as=0.912p ps=5.18u w=4.8u l=0.13u
X90 COMPB a_6770_4732# VDD VDD sg13_lv_pmos ad=1.824p pd=9.98u as=1.824p ps=9.98u w=9.6u l=0.13u
X91 a_1003_4745# a_1071_4709# VSS VSS sg13_lv_nmos ad=0.19p pd=1.38u as=0.19p ps=1.38u w=1u l=0.13u
X92 COMPB a_6770_4732# VSS VSS sg13_lv_nmos ad=0.912p pd=5.18u as=0.912p ps=5.18u w=4.8u l=0.13u
X93 VSS VSS VSS rppd l=0.5u w=0.5u
X94 a_2805_10309# a_1839_10309# VSS VSS sg13_lv_nmos ad=0.19p pd=1.38u as=0.34p ps=2.68u w=1u l=0.13u
X95 VSS a_2380_5853# a_3009_5853# VSS sg13_lv_nmos ad=0.34p pd=2.68u as=0.19p ps=1.38u w=1u l=0.13u
X96 COMPB a_6770_4732# VSS VSS sg13_lv_nmos ad=0.912p pd=5.18u as=0.912p ps=5.18u w=4.8u l=0.13u
X97 VSS VSS VSS rppd l=0.5u w=0.5u
X98 a_3317_8081# a_2907_8081# VSS VSS sg13_lv_nmos ad=0.34p pd=2.68u as=0.34p ps=2.68u w=1u l=0.13u
X99 VDD a_6770_4732# COMPB VDD sg13_lv_pmos ad=1.824p pd=9.98u as=1.824p ps=9.98u w=9.6u l=0.13u
X100 VSS a_6362_8126# a_6770_4732# VSS sg13_lv_nmos ad=0.912p pd=5.18u as=0.912p ps=5.18u w=4.8u l=0.13u
X101 VSS a_6770_4732# COMPB VSS sg13_lv_nmos ad=0.912p pd=5.18u as=0.912p ps=5.18u w=4.8u l=0.13u
X102 a_2584_5853# a_1267_5853# VSS VSS sg13_lv_nmos ad=0.34p pd=2.68u as=0.34p ps=2.68u w=1u l=0.13u
X103 VDD a_917_8508# a_1369_6375# w_787_6793# sg13_lv_pmos ad=0.68p pd=4.68u as=0.38p ps=2.38u w=2u l=0.13u
X104 COMPB a_6770_4732# VSS VSS sg13_lv_nmos ad=0.912p pd=5.18u as=0.912p ps=5.18u w=4.8u l=0.13u
X105 a_2380_9195# a_1839_9195# VDD w_787_8528# sg13_lv_pmos ad=0.68p pd=4.68u as=0.68p ps=4.68u w=2u l=0.13u
X106 COMPB a_6770_4732# VDD VDD sg13_lv_pmos ad=1.824p pd=9.98u as=1.824p ps=9.98u w=9.6u l=0.13u
X107 COMPB a_6770_4732# VDD VDD sg13_lv_pmos ad=1.824p pd=9.98u as=1.824p ps=9.98u w=9.6u l=0.13u
X108 VSS a_n1715_6811# a_n4986_6715# VSS sg13_lv_nmos ad=0.912p pd=5.18u as=0.912p ps=5.18u w=4.8u l=0.13u
X109 a_3009_6375# a_1267_5853# a_2907_5853# w_787_6793# sg13_lv_pmos ad=0.38p pd=2.38u as=0.38p ps=2.38u w=2u l=0.13u
X110 VDD a_6362_8126# a_6770_4732# VDD sg13_lv_pmos ad=1.824p pd=9.98u as=1.824p ps=9.98u w=9.6u l=0.13u
X111 VDD a_6770_4732# COMPB VDD sg13_lv_pmos ad=1.824p pd=9.98u as=1.824p ps=9.98u w=9.6u l=0.13u
X112 VSS VSS VSS rppd l=0.5u w=0.5u
X113 a_n4986_6715# a_n1715_6811# VSS VSS sg13_lv_nmos ad=0.912p pd=5.18u as=0.912p ps=5.18u w=4.8u l=0.13u
X114 VSS a_6362_8126# a_6770_4732# VSS sg13_lv_nmos ad=0.912p pd=5.18u as=0.912p ps=5.18u w=4.8u l=0.13u
X115 VSS VSS VSS rppd l=0.5u w=0.5u
X116 VSS a_6770_4732# COMPB VSS sg13_lv_nmos ad=0.912p pd=5.18u as=0.912p ps=5.18u w=4.8u l=0.13u
X117 VSS a_6770_4732# COMPB VSS sg13_lv_nmos ad=1.632p pd=10.28u as=0.912p ps=5.18u w=4.8u l=0.13u
X118 a_1839_10309# VDD VDD w_783_10756# sg13_lv_pmos ad=0.38p pd=2.38u as=0.68p ps=4.68u w=2u l=0.13u
X119 COMPB a_6770_4732# VSS VSS sg13_lv_nmos ad=0.912p pd=5.18u as=0.912p ps=5.18u w=4.8u l=0.13u
X120 VSS a_n4986_6715# SPIKEB VSS sg13_lv_nmos ad=0.912p pd=5.18u as=0.912p ps=5.18u w=4.8u l=0.13u
X121 VSS MEM a_4828_5366# VSS sg13_lv_nmos ad=0.34p pd=2.68u as=0.19p ps=1.38u w=1u l=0.13u
X122 a_1692_4709# RST a_1820_4745# w_889_4565# sg13_lv_pmos ad=0.68p pd=4.68u as=0.38p ps=2.38u w=2u l=0.13u
X123 VDD a_n4986_6715# SPIKEB VDD sg13_lv_pmos ad=1.824p pd=9.98u as=1.824p ps=9.98u w=9.6u l=0.13u
X124 SPIKEB a_n4986_6715# VDD VDD sg13_lv_pmos ad=1.824p pd=9.98u as=1.824p ps=9.98u w=9.6u l=0.13u
X125 VDD a_3317_8081# a_3521_8081# w_787_8528# sg13_lv_pmos ad=0.38p pd=2.38u as=0.38p ps=2.38u w=2u l=0.13u
X126 a_1267_9195# VSS VSS VSS sg13_lv_nmos ad=0.19p pd=1.38u as=0.34p ps=2.68u w=1u l=0.13u
X127 a_6770_4732# a_6362_8126# VSS VSS sg13_lv_nmos ad=0.912p pd=5.18u as=0.912p ps=5.18u w=4.8u l=0.13u
X128 VDD a_n4986_6715# SPIKEB VDD sg13_lv_pmos ad=1.824p pd=9.98u as=1.824p ps=9.98u w=9.6u l=0.13u
X129 VDD a_6770_4732# COMPB VDD sg13_lv_pmos ad=1.824p pd=9.98u as=1.824p ps=9.98u w=9.6u l=0.13u
X130 SPIKEB a_n4986_6715# VDD VDD sg13_lv_pmos ad=1.824p pd=9.98u as=1.824p ps=9.98u w=9.6u l=0.13u
X131 VDD a_4828_5366# a_1755_5366# w_889_4565# sg13_lv_pmos ad=0.38p pd=2.38u as=0.38p ps=2.38u w=2u l=0.13u
X132 SPIKEB a_n4986_6715# VSS VSS sg13_lv_nmos ad=0.912p pd=5.18u as=0.912p ps=5.18u w=4.8u l=0.13u
X133 a_2907_10309# a_1267_10309# a_2805_10309# VSS sg13_lv_nmos ad=0.19p pd=1.38u as=0.19p ps=1.38u w=1u l=0.13u
X134 VDD a_6770_4732# COMPB VDD sg13_lv_pmos ad=1.824p pd=9.98u as=1.824p ps=9.98u w=9.6u l=0.13u
X135 VDD a_6770_4732# COMPB VDD sg13_lv_pmos ad=1.824p pd=9.98u as=1.824p ps=9.98u w=9.6u l=0.13u
X136 SPIKEB a_n4986_6715# VSS VSS sg13_lv_nmos ad=0.912p pd=5.18u as=0.912p ps=5.18u w=4.8u l=0.13u
X137 VSS a_6770_4732# COMPB VSS sg13_lv_nmos ad=0.912p pd=5.18u as=0.912p ps=5.18u w=4.8u l=0.13u
X138 VDD a_917_8508# a_1369_10831# w_783_10756# sg13_lv_pmos ad=0.68p pd=4.68u as=0.38p ps=2.38u w=2u l=0.13u
X139 COMPB a_6770_4732# VSS VSS sg13_lv_nmos ad=0.912p pd=5.18u as=0.912p ps=5.18u w=4.8u l=0.13u
X140 VSS Vx a_1369_7689# VSS sg13_lv_nmos ad=0.34p pd=2.68u as=0.19p ps=1.38u w=1u l=0.13u
X141 VSS VSS VSS rppd l=0.5u w=0.5u
X142 VDD a_2380_8081# a_3009_8603# w_787_8528# sg13_lv_pmos ad=0.68p pd=4.68u as=0.38p ps=2.38u w=2u l=0.13u
X143 VDD a_1755_5366# a_2769_4709# w_889_4565# sg13_lv_pmos ad=0.68p pd=4.68u as=0.38p ps=2.38u w=2u l=0.13u
X144 a_3521_9195# MEM VSS rppd l=0.5u w=0.5u
X145 a_3009_7689# a_2584_6967# a_2907_6967# VSS sg13_lv_nmos ad=0.19p pd=1.38u as=0.19p ps=1.38u w=1u l=0.13u
X146 a_2584_8081# a_1267_8081# VDD w_787_8528# sg13_lv_pmos ad=0.68p pd=4.68u as=0.68p ps=4.68u w=2u l=0.13u
X147 VDD a_6770_4732# COMPB VDD sg13_lv_pmos ad=1.824p pd=9.98u as=1.824p ps=9.98u w=9.6u l=0.13u
X148 SPIKEB a_n4986_6715# VSS VSS sg13_lv_nmos ad=0.912p pd=5.18u as=0.912p ps=5.18u w=4.8u l=0.13u
X149 COMPB a_6770_4732# VDD VDD sg13_lv_pmos ad=1.824p pd=9.98u as=1.824p ps=9.98u w=9.6u l=0.13u
X150 VSS a_n4986_6715# SPIKEB VSS sg13_lv_nmos ad=0.912p pd=5.18u as=0.912p ps=5.18u w=4.8u l=0.13u
X151 SPIKEB a_n4986_6715# VDD VDD sg13_lv_pmos ad=1.824p pd=9.98u as=3.264p ps=19.88u w=9.6u l=0.13u
X152 a_1941_5853# a_1839_6967# a_1839_5853# VSS sg13_lv_nmos ad=0.19p pd=1.38u as=0.19p ps=1.38u w=1u l=0.13u
X153 VDD VDD VSS rhigh l=0.96u w=0.5u
X154 COMPB a_6770_4732# VSS VSS sg13_lv_nmos ad=0.912p pd=5.18u as=0.912p ps=5.18u w=4.8u l=0.13u
X155 VSS a_n4986_6715# SPIKEB VSS sg13_lv_nmos ad=0.912p pd=5.18u as=0.912p ps=5.18u w=4.8u l=0.13u
X156 VSS a_6770_4732# COMPB VSS sg13_lv_nmos ad=0.912p pd=5.18u as=0.912p ps=5.18u w=4.8u l=0.13u
X157 VSS VSS VSS rppd l=0.5u w=0.5u
X158 a_917_8508# a_917_8508# VDD w_787_8528# sg13_lv_pmos ad=0.68p pd=4.68u as=0.68p ps=4.68u w=2u l=0.13u
X159 SPIKEB a_n4986_6715# VDD VDD sg13_lv_pmos ad=1.824p pd=9.98u as=1.824p ps=9.98u w=9.6u l=0.13u
X160 VSS a_3317_9195# a_3521_9195# VSS sg13_lv_nmos ad=0.19p pd=1.38u as=0.19p ps=1.38u w=1u l=0.13u
X161 a_1003_4745# a_1071_4709# VDD w_889_4565# sg13_lv_pmos ad=0.38p pd=2.38u as=0.38p ps=2.38u w=2u l=0.13u
X162 VDD a_n4986_6715# SPIKEB VDD sg13_lv_pmos ad=1.824p pd=9.98u as=1.824p ps=9.98u w=9.6u l=0.13u
X163 VDD a_n4986_6715# SPIKEB VDD sg13_lv_pmos ad=1.824p pd=9.98u as=1.824p ps=9.98u w=9.6u l=0.13u
X164 SPIKEB a_n4986_6715# VDD VDD sg13_lv_pmos ad=1.824p pd=9.98u as=1.824p ps=9.98u w=9.6u l=0.13u
X165 a_n553_4696# a_2130_4709# VSS VSS sg13_lv_nmos ad=0.19p pd=1.38u as=0.19p ps=1.38u w=1u l=0.13u
X166 a_2380_5853# a_1839_5853# VDD w_787_6793# sg13_lv_pmos ad=0.68p pd=4.68u as=0.68p ps=4.68u w=2u l=0.13u
X167 VSS a_6770_4732# COMPB VSS sg13_lv_nmos ad=0.912p pd=5.18u as=0.912p ps=5.18u w=4.8u l=0.13u
X168 VDD a_3317_10309# a_3521_10309# w_783_10756# sg13_lv_pmos ad=0.38p pd=2.38u as=0.38p ps=2.38u w=2u l=0.13u
X169 SPIKEB a_n4986_6715# VSS VSS sg13_lv_nmos ad=0.912p pd=5.18u as=0.912p ps=5.18u w=4.8u l=0.13u
X170 VDD a_6770_4732# COMPB VDD sg13_lv_pmos ad=1.824p pd=9.98u as=1.824p ps=9.98u w=9.6u l=0.13u
X171 VSS a_6770_4732# COMPB VSS sg13_lv_nmos ad=0.912p pd=5.18u as=0.912p ps=5.18u w=4.8u l=0.13u
X172 SPIKEB a_n4986_6715# VSS VSS sg13_lv_nmos ad=0.912p pd=5.18u as=0.912p ps=5.18u w=4.8u l=0.13u
X173 a_6770_4732# a_6362_8126# VDD VDD sg13_lv_pmos ad=1.824p pd=9.98u as=3.264p ps=19.88u w=9.6u l=0.13u
X174 VDD a_6770_4732# COMPB VDD sg13_lv_pmos ad=1.824p pd=9.98u as=1.824p ps=9.98u w=9.6u l=0.13u
X175 VSS a_2380_9195# a_3009_9917# VSS sg13_lv_nmos ad=0.34p pd=2.68u as=0.19p ps=1.38u w=1u l=0.13u
X176 VSS VSS VSS rppd l=0.5u w=0.5u
X177 VSS a_6770_4732# COMPB VSS sg13_lv_nmos ad=0.912p pd=5.18u as=0.912p ps=5.18u w=4.8u l=0.13u
X178 a_2584_9195# a_1267_9195# VSS VSS sg13_lv_nmos ad=0.34p pd=2.68u as=0.34p ps=2.68u w=1u l=0.13u
X179 SPIKEB a_n4986_6715# VSS VSS sg13_lv_nmos ad=0.912p pd=5.18u as=0.912p ps=5.18u w=4.8u l=0.13u
X180 VDD a_917_8508# a_1369_6967# w_787_6793# sg13_lv_pmos ad=0.68p pd=4.68u as=0.38p ps=2.38u w=2u l=0.13u
X181 VSS VSS VSS rppd l=0.5u w=0.5u
X182 VDD VDD VSS rhigh l=4u w=0.5u
X183 VDD MEM a_4828_5366# w_889_4565# sg13_lv_pmos ad=0.68p pd=4.68u as=0.38p ps=2.38u w=2u l=0.13u
X184 VSS a_n4986_6715# SPIKEB VSS sg13_lv_nmos ad=0.912p pd=5.18u as=0.912p ps=5.18u w=4.8u l=0.13u
X185 a_2804_11753# a_3837_11577# VSS rhigh l=4u w=0.5u
X186 VSS a_4221_4709# a_3883_4709# VSS sg13_lv_nmos ad=0.34p pd=2.68u as=0.34p ps=2.68u w=1u l=0.65u
X187 VDD a_6770_4732# COMPB VDD sg13_lv_pmos ad=1.824p pd=9.98u as=1.824p ps=9.98u w=9.6u l=0.13u
X188 a_3009_6967# a_1267_6967# a_2907_6967# w_787_6793# sg13_lv_pmos ad=0.38p pd=2.38u as=0.38p ps=2.38u w=2u l=0.13u
X189 COMPB a_6770_4732# VSS VSS sg13_lv_nmos ad=0.912p pd=5.18u as=0.912p ps=5.18u w=4.8u l=0.13u
X190 SPIKEB a_n4986_6715# VDD VDD sg13_lv_pmos ad=1.824p pd=9.98u as=3.264p ps=19.88u w=9.6u l=0.13u
X191 VSS VSS VSS rppd l=0.5u w=0.5u
X192 a_1918_11577# a_885_11577# VSS rhigh l=4u w=0.5u
X193 SPIKEB a_n4986_6715# VSS VSS sg13_lv_nmos ad=0.912p pd=5.18u as=0.912p ps=5.18u w=4.8u l=0.13u
X194 a_1941_8603# a_1839_9195# a_1839_8081# w_787_8528# sg13_lv_pmos ad=0.38p pd=2.38u as=0.38p ps=2.38u w=2u l=0.13u
X195 a_1369_5853# a_1267_6967# a_1267_5853# VSS sg13_lv_nmos ad=0.19p pd=1.38u as=0.19p ps=1.38u w=1u l=0.13u
X196 VDD a_n4986_6715# SPIKEB VDD sg13_lv_pmos ad=1.824p pd=9.98u as=1.824p ps=9.98u w=9.6u l=0.13u
X197 a_2805_9195# a_1839_9195# VDD w_787_8528# sg13_lv_pmos ad=0.38p pd=2.38u as=0.68p ps=4.68u w=2u l=0.13u
X198 COMPB a_6770_4732# VSS VSS sg13_lv_nmos ad=0.912p pd=5.18u as=0.912p ps=5.18u w=4.8u l=0.13u
X199 VSS a_n4986_6715# SPIKEB VSS sg13_lv_nmos ad=0.912p pd=5.18u as=0.912p ps=5.18u w=4.8u l=0.13u
X200 VSS Vx a_1369_8081# VSS sg13_lv_nmos ad=0.34p pd=2.68u as=0.19p ps=1.38u w=1u l=0.13u
X201 VDD a_917_6931# a_1941_9195# w_787_8528# sg13_lv_pmos ad=0.68p pd=4.68u as=0.38p ps=2.38u w=2u l=0.13u
X202 a_2907_5853# a_1267_5853# a_2805_5853# VSS sg13_lv_nmos ad=0.19p pd=1.38u as=0.19p ps=1.38u w=1u l=0.13u
X203 VSS VSS VSS rppd l=0.5u w=0.5u
X204 SPIKEB a_n4986_6715# VDD VDD sg13_lv_pmos ad=1.824p pd=9.98u as=1.824p ps=9.98u w=9.6u l=0.13u
X205 a_3009_8081# a_2584_8081# a_2907_8081# VSS sg13_lv_nmos ad=0.19p pd=1.38u as=0.19p ps=1.38u w=1u l=0.13u
X206 a_6770_4732# a_6362_8126# VSS VSS sg13_lv_nmos ad=0.912p pd=5.18u as=0.912p ps=5.18u w=4.8u l=0.13u
X207 a_2380_6967# a_1839_6967# VSS VSS sg13_lv_nmos ad=0.34p pd=2.68u as=0.34p ps=2.68u w=1u l=0.13u
X208 VDD a_n4986_6715# SPIKEB VDD sg13_lv_pmos ad=1.824p pd=9.98u as=1.824p ps=9.98u w=9.6u l=0.13u
X209 a_1839_10309# a_1003_4745# VSS VSS sg13_lv_nmos ad=0.19p pd=1.38u as=0.34p ps=2.68u w=1u l=0.13u
X210 VSS a_n4986_6715# SPIKEB VSS sg13_lv_nmos ad=0.912p pd=5.18u as=0.912p ps=5.18u w=4.8u l=0.13u
X211 a_n4986_6715# a_n1715_6811# VDD VDD sg13_lv_pmos ad=1.824p pd=9.98u as=1.824p ps=9.98u w=9.6u l=0.13u
X212 a_3317_10309# a_2907_10309# VDD w_783_10756# sg13_lv_pmos ad=0.68p pd=4.68u as=0.68p ps=4.68u w=2u l=0.13u
X213 VSS a_n4986_6715# SPIKEB VSS sg13_lv_nmos ad=0.912p pd=5.18u as=0.912p ps=5.18u w=4.8u l=0.13u
X214 VDD a_6770_4732# COMPB VDD sg13_lv_pmos ad=1.824p pd=9.98u as=1.824p ps=9.98u w=9.6u l=0.13u
X215 a_2380_10309# a_1839_10309# VDD w_783_10756# sg13_lv_pmos ad=0.68p pd=4.68u as=0.68p ps=4.68u w=2u l=0.13u
X216 VDD VDD VSS rhigh l=0.96u w=0.5u
X217 a_6770_4732# a_6362_8126# VDD VDD sg13_lv_pmos ad=1.824p pd=9.98u as=1.824p ps=9.98u w=9.6u l=0.13u
X218 a_6770_4732# a_6362_8126# VDD VDD sg13_lv_pmos ad=1.824p pd=9.98u as=1.824p ps=9.98u w=9.6u l=0.13u
X219 COMPB a_6770_4732# VDD VDD sg13_lv_pmos ad=1.824p pd=9.98u as=1.824p ps=9.98u w=9.6u l=0.13u
X220 VDD a_6276_9217# a_6362_8126# VDD sg13_lv_pmos ad=1.824p pd=9.98u as=1.824p ps=9.98u w=9.6u l=0.13u
X221 VDD a_n899_9217# a_n1715_6811# VDD sg13_lv_pmos ad=1.824p pd=9.98u as=1.824p ps=9.98u w=9.6u l=0.13u
X222 VSS VSS VSS rppd l=0.5u w=0.5u
X223 VSS a_n553_4696# a_n899_9217# VSS sg13_lv_nmos ad=1.632p pd=10.28u as=1.632p ps=10.28u w=4.8u l=0.13u
X224 SPIKEB a_n4986_6715# VSS VSS sg13_lv_nmos ad=0.912p pd=5.18u as=0.912p ps=5.18u w=4.8u l=0.13u
X225 a_3009_10831# a_1267_10309# a_2907_10309# w_783_10756# sg13_lv_pmos ad=0.38p pd=2.38u as=0.38p ps=2.38u w=2u l=0.13u
X226 VSS Vx a_1369_10309# VSS sg13_lv_nmos ad=0.34p pd=2.68u as=0.19p ps=1.38u w=1u l=0.13u
X227 a_3521_5853# a_3317_5853# VSS VSS sg13_lv_nmos ad=0.34p pd=2.68u as=0.19p ps=1.38u w=1u l=0.13u
X228 VSS VSS VSS rppd l=0.5u w=0.5u
X229 a_1941_9917# a_1839_10309# a_1839_9195# VSS sg13_lv_nmos ad=0.19p pd=1.38u as=0.19p ps=1.38u w=1u l=0.13u
X230 a_3521_9195# a_3317_9195# VDD w_787_8528# sg13_lv_pmos ad=0.38p pd=2.38u as=0.68p ps=4.68u w=2u l=0.13u
X231 a_n553_4696# a_2130_4709# VDD w_889_4565# sg13_lv_pmos ad=0.38p pd=2.38u as=0.38p ps=2.38u w=2u l=0.13u
X232 SPIKEB a_n4986_6715# VDD VDD sg13_lv_pmos ad=1.824p pd=9.98u as=1.824p ps=9.98u w=9.6u l=0.13u
X233 VSS a_6276_9217# a_6362_8126# VSS sg13_lv_nmos ad=0.912p pd=5.18u as=0.912p ps=5.18u w=4.8u l=0.13u
X234 VSS VSS VSS rppd l=0.5u w=0.5u
X235 VSS a_n1715_6811# a_n4986_6715# VSS sg13_lv_nmos ad=0.912p pd=5.18u as=0.912p ps=5.18u w=4.8u l=0.13u
X236 a_6362_8126# a_6276_9217# VSS VSS sg13_lv_nmos ad=0.912p pd=5.18u as=1.632p ps=10.28u w=4.8u l=0.13u
X237 VDD a_n4986_6715# SPIKEB VDD sg13_lv_pmos ad=1.824p pd=9.98u as=1.824p ps=9.98u w=9.6u l=0.13u
X238 VDD a_n4986_6715# SPIKEB VDD sg13_lv_pmos ad=1.824p pd=9.98u as=1.824p ps=9.98u w=9.6u l=0.13u
X239 a_n1715_6811# a_n899_9217# VSS VSS sg13_lv_nmos ad=0.912p pd=5.18u as=0.912p ps=5.18u w=4.8u l=0.13u
X240 a_1369_8603# a_1267_9195# a_1267_8081# w_787_8528# sg13_lv_pmos ad=0.38p pd=2.38u as=0.38p ps=2.38u w=2u l=0.13u
X241 VSS a_n1715_6811# a_n4986_6715# VSS sg13_lv_nmos ad=0.912p pd=5.18u as=0.912p ps=5.18u w=4.8u l=0.13u
X242 a_3317_5853# a_2907_5853# VSS VSS sg13_lv_nmos ad=0.34p pd=2.68u as=0.34p ps=2.68u w=1u l=0.13u
X243 COMPB a_6770_4732# VDD VDD sg13_lv_pmos ad=1.824p pd=9.98u as=1.824p ps=9.98u w=9.6u l=0.13u
X244 a_n4986_6715# a_n1715_6811# VSS VSS sg13_lv_nmos ad=0.912p pd=5.18u as=0.912p ps=5.18u w=4.8u l=0.13u
X245 VSS VSS VSS rppd l=0.5u w=0.5u
X246 a_3521_9195# MEM VSS rppd l=0.5u w=0.5u
X247 VSS a_1071_4709# a_1003_4745# VSS sg13_lv_nmos ad=0.34p pd=2.68u as=0.19p ps=1.38u w=1u l=0.13u
X248 VSS a_6770_4732# COMPB VSS sg13_lv_nmos ad=0.912p pd=5.18u as=0.912p ps=5.18u w=4.8u l=0.13u
X249 a_2907_8081# a_2584_8081# a_2805_8603# w_787_8528# sg13_lv_pmos ad=0.38p pd=2.38u as=0.38p ps=2.38u w=2u l=0.13u
X250 VDD VDD VSS rhigh l=4u w=0.5u
X251 VSS a_6770_4732# COMPB VSS sg13_lv_nmos ad=1.632p pd=10.28u as=0.912p ps=5.18u w=4.8u l=0.13u
X252 a_3984_11577# MEM VSS rhigh l=4u w=0.5u
X253 COMPB a_6770_4732# VSS VSS sg13_lv_nmos ad=0.912p pd=5.18u as=0.912p ps=5.18u w=4.8u l=0.13u
X254 a_2380_6967# a_1839_6967# VDD w_787_6793# sg13_lv_pmos ad=0.68p pd=4.68u as=0.68p ps=4.68u w=2u l=0.13u
X255 a_n4986_6715# a_n1715_6811# VDD VDD sg13_lv_pmos ad=1.824p pd=9.98u as=1.824p ps=9.98u w=9.6u l=0.13u
X256 COMPB a_6770_4732# VDD VDD sg13_lv_pmos ad=1.824p pd=9.98u as=1.824p ps=9.98u w=9.6u l=0.13u
X257 VSS a_n4986_6715# SPIKEB VSS sg13_lv_nmos ad=0.912p pd=5.18u as=0.912p ps=5.18u w=4.8u l=0.13u
X258 VSS VSS VSS rppd l=0.5u w=0.5u
X259 VDD a_6770_4732# COMPB VDD sg13_lv_pmos ad=1.824p pd=9.98u as=1.824p ps=9.98u w=9.6u l=0.13u
X260 VDD a_6770_4732# COMPB VDD sg13_lv_pmos ad=1.824p pd=9.98u as=1.824p ps=9.98u w=9.6u l=0.13u
X261 a_n4986_6715# a_n1715_6811# VSS VSS sg13_lv_nmos ad=0.912p pd=5.18u as=0.912p ps=5.18u w=4.8u l=0.13u
X262 a_6770_4732# a_6362_8126# VDD VDD sg13_lv_pmos ad=1.824p pd=9.98u as=1.824p ps=9.98u w=9.6u l=0.13u
X263 COMPB a_6770_4732# VDD VDD sg13_lv_pmos ad=1.824p pd=9.98u as=1.824p ps=9.98u w=9.6u l=0.13u
X264 VSS a_n1715_6811# a_n4986_6715# VSS sg13_lv_nmos ad=0.912p pd=5.18u as=0.912p ps=5.18u w=4.8u l=0.13u
X265 a_2805_6375# a_1839_5853# VDD w_787_6793# sg13_lv_pmos ad=0.38p pd=2.38u as=0.68p ps=4.68u w=2u l=0.13u
X266 a_6770_4732# a_6362_8126# VSS VSS sg13_lv_nmos ad=0.912p pd=5.18u as=0.912p ps=5.18u w=4.8u l=0.13u
X267 VSS a_3317_10309# a_3521_10309# VSS sg13_lv_nmos ad=0.19p pd=1.38u as=0.19p ps=1.38u w=1u l=0.13u
X268 a_3521_5853# MEM VSS rppd l=0.5u w=0.5u
X269 COMPB a_6770_4732# VSS VSS sg13_lv_nmos ad=0.912p pd=5.18u as=0.912p ps=5.18u w=4.8u l=0.13u
X270 VDD a_917_6931# a_1941_6375# w_787_6793# sg13_lv_pmos ad=0.68p pd=4.68u as=0.38p ps=2.38u w=2u l=0.13u
X271 VSS VSS VSS rppd l=0.5u w=0.5u
X272 VSS a_6770_4732# COMPB VSS sg13_lv_nmos ad=0.912p pd=5.18u as=0.912p ps=5.18u w=4.8u l=0.13u
X273 a_2380_8081# a_1839_8081# VSS VSS sg13_lv_nmos ad=0.34p pd=2.68u as=0.34p ps=2.68u w=1u l=0.13u
X274 SPIKEB a_n4986_6715# VSS VSS sg13_lv_nmos ad=0.912p pd=5.18u as=0.912p ps=5.18u w=4.8u l=0.13u
X275 SPIKEB a_n4986_6715# VDD VDD sg13_lv_pmos ad=1.824p pd=9.98u as=1.824p ps=9.98u w=9.6u l=0.13u
X276 VDD a_n4986_6715# SPIKEB VDD sg13_lv_pmos ad=1.824p pd=9.98u as=1.824p ps=9.98u w=9.6u l=0.13u
X277 COMPB a_6770_4732# VSS VSS sg13_lv_nmos ad=0.912p pd=5.18u as=0.912p ps=5.18u w=4.8u l=0.13u
X278 a_3521_8081# a_3317_8081# VDD w_787_8528# sg13_lv_pmos ad=0.68p pd=4.68u as=0.38p ps=2.38u w=2u l=0.13u
X279 VDD VDD VSS rhigh l=4u w=0.5u
X280 Vx a_1771_11577# VSS rhigh l=4u w=0.5u
X281 a_1369_9917# a_1267_10309# a_1267_9195# VSS sg13_lv_nmos ad=0.19p pd=1.38u as=0.19p ps=1.38u w=1u l=0.13u
X282 VSS a_6362_8126# a_6770_4732# VSS sg13_lv_nmos ad=0.912p pd=5.18u as=0.912p ps=5.18u w=4.8u l=0.13u
X283 SPIKEB a_n4986_6715# VDD VDD sg13_lv_pmos ad=1.824p pd=9.98u as=1.824p ps=9.98u w=9.6u l=0.13u
X284 SPIKEB a_n4986_6715# VSS VSS sg13_lv_nmos ad=0.912p pd=5.18u as=0.912p ps=5.18u w=4.8u l=0.13u
X285 VSS a_6770_4732# COMPB VSS sg13_lv_nmos ad=0.912p pd=5.18u as=0.912p ps=5.18u w=4.8u l=0.13u
X286 VDD a_n4986_6715# SPIKEB VDD sg13_lv_pmos ad=1.824p pd=9.98u as=1.824p ps=9.98u w=9.6u l=0.13u
X287 VSS a_3207_4709# a_2840_5276# VSS sg13_lv_nmos ad=0.34p pd=2.68u as=0.34p ps=2.68u w=1u l=0.65u
X288 VSS a_n4986_6715# SPIKEB VSS sg13_lv_nmos ad=0.912p pd=5.18u as=0.912p ps=5.18u w=4.8u l=0.13u
X289 a_2907_9195# a_1267_9195# a_2805_9917# VSS sg13_lv_nmos ad=0.19p pd=1.38u as=0.19p ps=1.38u w=1u l=0.13u
X290 COMPB a_6770_4732# VDD VDD sg13_lv_pmos ad=1.824p pd=9.98u as=1.824p ps=9.98u w=9.6u l=0.13u
X291 VDD a_n4986_6715# SPIKEB VDD sg13_lv_pmos ad=1.824p pd=9.98u as=1.824p ps=9.98u w=9.6u l=0.13u
X292 COMPB a_6770_4732# VSS VSS sg13_lv_nmos ad=0.912p pd=5.18u as=0.912p ps=5.18u w=4.8u l=0.13u
X293 VSS VSS VSS rppd l=0.5u w=0.5u
X294 a_3317_8081# a_2907_8081# VDD w_787_8528# sg13_lv_pmos ad=0.68p pd=4.68u as=0.68p ps=4.68u w=2u l=0.13u
X295 VSS a_6770_4732# COMPB VSS sg13_lv_nmos ad=0.912p pd=5.18u as=0.912p ps=5.18u w=4.8u l=0.13u
X296 COMPB a_6770_4732# VDD VDD sg13_lv_pmos ad=1.824p pd=9.98u as=1.824p ps=9.98u w=9.6u l=0.13u
X297 VDD a_2769_4709# a_2538_4709# w_889_4565# sg13_lv_pmos ad=0.38p pd=2.38u as=0.68p ps=4.68u w=2u l=0.13u
X298 a_3521_10309# MEM VSS rppd l=0.5u w=0.5u
X299 COMPB a_6770_4732# VDD VDD sg13_lv_pmos ad=1.824p pd=9.98u as=1.824p ps=9.98u w=9.6u l=0.13u
X300 COMPB a_6770_4732# VDD VDD sg13_lv_pmos ad=1.824p pd=9.98u as=1.824p ps=9.98u w=9.6u l=0.13u
X301 VSS a_n4986_6715# SPIKEB VSS sg13_lv_nmos ad=0.912p pd=5.18u as=0.912p ps=5.18u w=4.8u l=0.13u
X302 a_3521_5853# a_3317_5853# VDD w_787_6793# sg13_lv_pmos ad=0.38p pd=2.38u as=0.68p ps=4.68u w=2u l=0.13u
X303 a_2805_7689# a_1839_6967# VSS VSS sg13_lv_nmos ad=0.19p pd=1.38u as=0.34p ps=2.68u w=1u l=0.13u
X304 VDD a_6770_4732# COMPB VDD sg13_lv_pmos ad=1.824p pd=9.98u as=1.824p ps=9.98u w=9.6u l=0.13u
X305 SPIKEB a_n4986_6715# VSS VSS sg13_lv_nmos ad=0.912p pd=5.18u as=0.912p ps=5.18u w=4.8u l=0.13u
X306 VSS a_6770_4732# COMPB VSS sg13_lv_nmos ad=0.912p pd=5.18u as=0.912p ps=5.18u w=4.8u l=0.13u
X307 VSS VREF a_1941_7689# VSS sg13_lv_nmos ad=0.34p pd=2.68u as=0.19p ps=1.38u w=1u l=0.13u
X308 VSS a_6770_4732# COMPB VSS sg13_lv_nmos ad=0.912p pd=5.18u as=0.912p ps=5.18u w=4.8u l=0.13u
X309 a_3317_10309# a_2907_10309# VSS VSS sg13_lv_nmos ad=0.34p pd=2.68u as=0.34p ps=2.68u w=1u l=0.13u
X310 VDD a_3545_4709# a_3207_4709# w_889_4565# sg13_lv_pmos ad=0.68p pd=4.68u as=0.68p ps=4.68u w=2u l=0.65u
X311 SPIKEB a_n4986_6715# VSS VSS sg13_lv_nmos ad=0.912p pd=5.18u as=0.912p ps=5.18u w=4.8u l=0.13u
X312 a_1839_9195# VDD VDD w_787_8528# sg13_lv_pmos ad=0.38p pd=2.38u as=0.68p ps=4.68u w=2u l=0.13u
X313 a_1941_10831# a_1839_5853# a_1839_10309# w_783_10756# sg13_lv_pmos ad=0.38p pd=2.38u as=0.38p ps=2.38u w=2u l=0.13u