* PEX produced on Sun Mar 22 05:10:43 PM CET 2026 using /foss/tools/sak/sak-pex.sh with m=3 and s=1
* NGSPICE file created from LIF_neuron.ext - technology: ihp-sg13g2

.subckt LIF_neuron VDD Vx MEM RST SPIKE VSS Vref COMP
X0 VSS.t95 VSS.t96 VSS.t46 rppd l=0.5u w=0.5u
X1 VSS.t6 a_2538_4709.t2 a_2130_4709.t1 VSS.t5 sg13_lv_nmos ad=0.34p pd=2.68u as=0.34p ps=2.68u w=1u l=0.13u
X2 a_3521_9195.t3 a_3317_9195.t3 VSS.t207 VSS.t203 sg13_lv_nmos ad=0.19p pd=1.38u as=0.34p ps=2.68u w=1u l=0.13u
X3 VDD.t125 a_1071_4709.t3 a_1003_4745.t0 VDD.t4 sg13_lv_pmos ad=0.38p pd=2.38u as=0.68p ps=4.68u w=2u l=0.13u
X4 VSS.t35 a_2769_4709.t2 a_2538_4709.t1 VSS.t34 sg13_lv_nmos ad=0.19p pd=1.38u as=0.34p ps=2.68u w=1u l=0.13u
X5 VSS.t178 a_2130_4709.t3 SPIKE.t2 VSS.t177 sg13_lv_nmos ad=0.19p pd=1.38u as=0.34p ps=2.68u w=1u l=0.13u
X6 a_3521_6967.t4 a_3317_6967.t2 VSS.t151 VSS.t13 sg13_lv_nmos ad=0.34p pd=2.68u as=0.19p ps=1.38u w=1u l=0.13u
X7 VSS.t229 a_3545_4709.t2 a_3207_4709.t1 VSS.t197 sg13_lv_nmos ad=0.34p pd=2.68u as=0.34p ps=2.68u w=1u l=0.65u
X8 VSS.t105 VSS.t106 VSS.t46 rppd l=0.5u w=0.5u
X9 VSS.t72 VSS.t73 VSS.t71 rppd l=0.5u w=0.5u
X10 a_1369_6967.t0 a_1267_8081.t2 a_1267_6967.t0 VDD.t9 sg13_lv_pmos ad=0.38p pd=2.38u as=0.38p ps=2.38u w=2u l=0.13u
X11 VDD.t74 VDD.t75 VSS.t89 rhigh l=0.96u w=0.5u
X12 VDD.t73 a_917_8508.t6 a_1369_9195.t0 VDD.t1 sg13_lv_pmos ad=0.68p pd=4.68u as=0.38p ps=2.38u w=2u l=0.13u
X13 a_3317_6967.t1 a_2907_6967.t2 VSS.t153 VSS.t111 sg13_lv_nmos ad=0.34p pd=2.68u as=0.34p ps=2.68u w=1u l=0.13u
X14 a_2907_6967.t1 a_2584_6967.t2 a_2805_6967.t0 VDD.t9 sg13_lv_pmos ad=0.38p pd=2.38u as=0.38p ps=2.38u w=2u l=0.13u
X15 a_2907_10309.t0 a_2584_10309.t3 a_2805_10831.t0 VDD.t0 sg13_lv_pmos ad=0.38p pd=2.38u as=0.38p ps=2.38u w=2u l=0.13u
X16 a_1369_10309.t0 a_1267_5853.t5 a_1267_10309.t1 VSS.t70 sg13_lv_nmos ad=0.19p pd=1.38u as=0.19p ps=1.38u w=1u l=0.13u
X17 a_3009_9195.t0 a_1267_9195.t3 a_2907_9195.t0 VDD.t1 sg13_lv_pmos ad=0.38p pd=2.38u as=0.38p ps=2.38u w=2u l=0.13u
X18 a_1839_8081.t0 VDD.t48 VDD.t49 VDD.t1 sg13_lv_pmos ad=0.38p pd=2.38u as=0.68p ps=4.68u w=2u l=0.13u
X19 a_1267_5853.t0 a_1003_4745.t5 VSS.t110 VSS.t109 sg13_lv_nmos ad=0.19p pd=1.38u as=0.34p ps=2.68u w=1u l=0.13u
X20 a_3521_8081.t4 MEM.t8 VSS.t7 rppd l=0.5u w=0.5u
X21 a_1369_8081.t0 a_1267_9195.t2 a_1267_8081.t1 VSS.t3 sg13_lv_nmos ad=0.19p pd=1.38u as=0.19p ps=1.38u w=1u l=0.13u
X22 VDD.t44 COMP.t2 a_4221_4709.t0 VDD.t4 sg13_lv_pmos ad=0.68p pd=4.68u as=0.68p ps=4.68u w=2u l=0.65u
X23 VDD.t108 a_3883_4709.t2 a_3545_4709.t0 VDD.t4 sg13_lv_pmos ad=0.68p pd=4.68u as=0.68p ps=4.68u w=2u l=0.65u
X24 a_2907_8081.t1 a_1267_8081.t3 a_2805_8081.t0 VSS.t68 sg13_lv_nmos ad=0.19p pd=1.38u as=0.19p ps=1.38u w=1u l=0.13u
X25 VSS.t78 RST.t0 a_1692_4709.t1 VSS.t77 sg13_lv_nmos ad=0.34p pd=2.68u as=0.19p ps=1.38u w=1u l=0.13u
X26 VSS.t244 VSS.t245 VSS.t24 rppd l=0.5u w=0.5u
X27 VSS.t131 a_4828_5366.t2 COMP.t0 VSS.t130 sg13_lv_nmos ad=0.19p pd=1.38u as=0.19p ps=1.38u w=1u l=0.13u
X28 a_3521_10309.t4 a_3317_10309.t3 VSS.t204 VSS.t203 sg13_lv_nmos ad=0.19p pd=1.38u as=0.34p ps=2.68u w=1u l=0.13u
X29 a_3521_6967.t3 a_3317_6967.t2 VDD.t78 VDD.t9 sg13_lv_pmos ad=0.68p pd=4.68u as=0.38p ps=2.38u w=2u l=0.13u
X30 VSS.t8 VSS.t9 VSS.t7 rppd l=0.5u w=0.5u
X31 a_2584_10309.t1 a_1267_10309.t4 VSS.t30 VSS.t29 sg13_lv_nmos ad=0.34p pd=2.68u as=0.34p ps=2.68u w=1u l=0.13u
X32 VDD.t5 a_2538_4709.t2 a_2130_4709.t0 VDD.t4 sg13_lv_pmos ad=0.68p pd=4.68u as=0.68p ps=4.68u w=2u l=0.13u
X33 VSS.t113 VSS.t114 VSS.t49 rppd l=0.5u w=0.5u
X34 a_3317_6967.t0 a_2907_6967.t2 VDD.t82 VDD.t9 sg13_lv_pmos ad=0.68p pd=4.68u as=0.68p ps=4.68u w=2u l=0.13u
X35 VSS.t198 a_3317_5853.t2 a_3521_5853.t2 VSS.t197 sg13_lv_nmos ad=0.19p pd=1.38u as=0.19p ps=1.38u w=1u l=0.13u
X36 a_1839_9195.t1 VSS.t165 VSS.t167 VSS.t166 sg13_lv_nmos ad=0.19p pd=1.38u as=0.34p ps=2.68u w=1u l=0.13u
X37 a_3521_8081.t3 a_3317_8081.t2 VSS.t12 VSS.t13 sg13_lv_nmos ad=0.34p pd=2.68u as=0.19p ps=1.38u w=1u l=0.13u
X38 VDD.t89 a_2130_4709.t3 SPIKE.t3 VDD.t4 sg13_lv_pmos ad=0.38p pd=2.38u as=0.68p ps=4.68u w=2u l=0.13u
X39 a_1267_8081.t0 VDD.t54 VDD.t55 VDD.t1 sg13_lv_pmos ad=0.38p pd=2.38u as=0.68p ps=4.68u w=2u l=0.13u
X40 a_2805_10309.t0 a_1839_10309.t3 VSS.t138 VSS.t44 sg13_lv_nmos ad=0.19p pd=1.38u as=0.34p ps=2.68u w=1u l=0.13u
X41 a_1003_4745.t3 a_1071_4709.t3 VSS.t249 VSS.t250 sg13_lv_nmos ad=0.19p pd=1.38u as=0.19p ps=1.38u w=1u l=0.13u
X42 VSS.t94 a_2380_5853.t2 a_3009_5853.t0 VSS.t93 sg13_lv_nmos ad=0.34p pd=2.68u as=0.19p ps=1.38u w=1u l=0.13u
X43 a_3317_8081.t1 a_2907_8081.t2 VSS.t112 VSS.t111 sg13_lv_nmos ad=0.34p pd=2.68u as=0.34p ps=2.68u w=1u l=0.13u
X44 a_2584_5853.t1 a_1267_5853.t3 VSS.t218 VSS.t217 sg13_lv_nmos ad=0.34p pd=2.68u as=0.34p ps=2.68u w=1u l=0.13u
X45 VSS.t145 VSS.t146 VSS.t90 rppd l=0.5u w=0.5u
X46 VDD.t47 a_917_8508.t3 a_1369_6375.t0 VDD.t9 sg13_lv_pmos ad=0.68p pd=4.68u as=0.38p ps=2.38u w=2u l=0.13u
X47 VSS.t50 VSS.t51 VSS.t49 rppd l=0.5u w=0.5u
X48 a_2380_9195.t0 a_1839_9195.t4 VDD.t25 VDD.t1 sg13_lv_pmos ad=0.68p pd=4.68u as=0.68p ps=4.68u w=2u l=0.13u
X49 a_3009_6375.t0 a_1267_5853.t4 a_2907_5853.t1 VDD.t9 sg13_lv_pmos ad=0.38p pd=2.38u as=0.38p ps=2.38u w=2u l=0.13u
X50 VSS.t161 VSS.t162 VSS.t46 rppd l=0.5u w=0.5u
X51 a_1839_10309.t1 VDD.t60 VDD.t61 VDD.t0 sg13_lv_pmos ad=0.38p pd=2.38u as=0.68p ps=4.68u w=2u l=0.13u
X52 VSS.t239 MEM.t11 a_4828_5366.t1 VSS.t238 sg13_lv_nmos ad=0.34p pd=2.68u as=0.19p ps=1.38u w=1u l=0.13u
X53 VSS.t159 VSS.t160 VSS.t52 rppd l=0.5u w=0.5u
X54 VDD.t6 a_3317_8081.t2 a_3521_8081.t0 VDD.t1 sg13_lv_pmos ad=0.38p pd=2.38u as=0.38p ps=2.38u w=2u l=0.13u
X55 a_1692_4709.t0 RST.t0 a_1820_4745.t0 VDD.t4 sg13_lv_pmos ad=0.68p pd=4.68u as=0.38p ps=2.38u w=2u l=0.13u
X56 a_1267_9195.t0 VSS.t170 VSS.t172 VSS.t171 sg13_lv_nmos ad=0.19p pd=1.38u as=0.34p ps=2.68u w=1u l=0.13u
X57 VSS.t53 VSS.t54 VSS.t52 rppd l=0.5u w=0.5u
X58 a_2907_10309.t1 a_1267_10309.t3 a_2805_10309.t0 VSS.t176 sg13_lv_nmos ad=0.19p pd=1.38u as=0.19p ps=1.38u w=1u l=0.13u
X59 VSS.t79 VSS.t80 VSS.t41 rppd l=0.5u w=0.5u
X60 VDD.t72 a_917_8508.t7 a_1369_10831.t0 VDD.t0 sg13_lv_pmos ad=0.68p pd=4.68u as=0.38p ps=2.38u w=2u l=0.13u
X61 VSS.t254 VX.t2 a_1369_7689.t0 VSS.t253 sg13_lv_nmos ad=0.34p pd=2.68u as=0.19p ps=1.38u w=1u l=0.13u
X62 VDD.t128 a_2380_8081.t2 a_3009_8603.t0 VDD.t1 sg13_lv_pmos ad=0.68p pd=4.68u as=0.38p ps=2.38u w=2u l=0.13u
X63 VDD.t42 COMP.t3 a_2769_4709.t0 VDD.t4 sg13_lv_pmos ad=0.68p pd=4.68u as=0.38p ps=2.38u w=2u l=0.13u
X64 a_2584_8081.t0 a_1267_8081.t4 VDD.t35 VDD.t1 sg13_lv_pmos ad=0.68p pd=4.68u as=0.68p ps=4.68u w=2u l=0.13u
X65 a_3009_7689.t0 a_2584_6967.t3 a_2907_6967.t0 VSS.t55 sg13_lv_nmos ad=0.19p pd=1.38u as=0.19p ps=1.38u w=1u l=0.13u
X66 VDD.t80 VDD.t81 VSS.t89 rhigh l=0.96u w=0.5u
X67 a_3521_8081.t5 MEM.t9 VSS.t7 rppd l=0.5u w=0.5u
X68 a_1941_5853.t0 a_1839_6967.t2 a_1839_5853.t0 VSS.t212 sg13_lv_nmos ad=0.19p pd=1.38u as=0.19p ps=1.38u w=1u l=0.13u
X69 VSS.t241 a_3317_9195.t2 a_3521_9195.t3 VSS.t156 sg13_lv_nmos ad=0.19p pd=1.38u as=0.19p ps=1.38u w=1u l=0.13u
X70 a_917_8508.t1 a_917_8508.t0 VDD.t88 VDD.t1 sg13_lv_pmos ad=0.68p pd=4.68u as=0.68p ps=4.68u w=2u l=0.13u
X71 a_1003_4745.t1 a_1071_4709.t3 VDD.t125 VDD.t4 sg13_lv_pmos ad=0.38p pd=2.38u as=0.38p ps=2.38u w=2u l=0.13u
X72 SPIKE.t0 a_2130_4709.t3 VSS.t178 VSS.t179 sg13_lv_nmos ad=0.19p pd=1.38u as=0.19p ps=1.38u w=1u l=0.13u
X73 a_2380_5853.t0 a_1839_5853.t3 VDD.t96 VDD.t9 sg13_lv_pmos ad=0.68p pd=4.68u as=0.68p ps=4.68u w=2u l=0.13u
X74 VDD.t84 a_3317_10309.t2 a_3521_10309.t2 VDD.t0 sg13_lv_pmos ad=0.38p pd=2.38u as=0.38p ps=2.38u w=2u l=0.13u
X75 a_2584_9195.t1 a_1267_9195.t4 VSS.t74 VSS.t29 sg13_lv_nmos ad=0.34p pd=2.68u as=0.34p ps=2.68u w=1u l=0.13u
X76 VSS.t121 a_2380_9195.t2 a_3009_9917.t0 VSS.t101 sg13_lv_nmos ad=0.34p pd=2.68u as=0.19p ps=1.38u w=1u l=0.13u
X77 VSS.t83 VSS.t84 VSS.t71 rppd l=0.5u w=0.5u
X78 VSS.t261 VSS.t262 VSS.t24 rppd l=0.5u w=0.5u
X79 VDD.t129 VDD.t130 VSS.t36 rhigh l=4u w=0.5u
X80 VDD.t26 a_917_8508.t4 a_1369_6967.t0 VDD.t9 sg13_lv_pmos ad=0.68p pd=4.68u as=0.38p ps=2.38u w=2u l=0.13u
X81 a_2804_11753.t0 a_3837_11577.t0 VSS.t36 rhigh l=4u w=0.5u
X82 a_3009_6967.t0 a_1267_6967.t3 a_2907_6967.t1 VDD.t9 sg13_lv_pmos ad=0.38p pd=2.38u as=0.38p ps=2.38u w=2u l=0.13u
X83 VSS.t164 a_4221_4709.t2 a_3883_4709.t1 VSS.t163 sg13_lv_nmos ad=0.34p pd=2.68u as=0.34p ps=2.68u w=1u l=0.65u
X84 a_1918_11577.t0 a_885_11577.t0 VSS.t69 rhigh l=4u w=0.5u
X85 VSS.t227 VSS.t228 VSS.t52 rppd l=0.5u w=0.5u
X86 a_2805_9195.t0 a_1839_9195.t3 VDD.t16 VDD.t1 sg13_lv_pmos ad=0.38p pd=2.38u as=0.68p ps=4.68u w=2u l=0.13u
X87 a_1941_8603.t0 a_1839_9195.t2 a_1839_8081.t0 VDD.t1 sg13_lv_pmos ad=0.38p pd=2.38u as=0.38p ps=2.38u w=2u l=0.13u
X88 a_1369_5853.t0 a_1267_6967.t2 a_1267_5853.t0 VSS.t58 sg13_lv_nmos ad=0.19p pd=1.38u as=0.19p ps=1.38u w=1u l=0.13u
X89 VDD.t8 a_917_6931.t6 a_1941_9195.t0 VDD.t1 sg13_lv_pmos ad=0.68p pd=4.68u as=0.38p ps=2.38u w=2u l=0.13u
X90 VSS.t257 VX.t3 a_1369_8081.t0 VSS.t253 sg13_lv_nmos ad=0.34p pd=2.68u as=0.19p ps=1.38u w=1u l=0.13u
X91 a_2907_5853.t0 a_1267_5853.t2 a_2805_5853.t0 VSS.t182 sg13_lv_nmos ad=0.19p pd=1.38u as=0.19p ps=1.38u w=1u l=0.13u
X92 a_3009_8081.t0 a_2584_8081.t2 a_2907_8081.t1 VSS.t55 sg13_lv_nmos ad=0.19p pd=1.38u as=0.19p ps=1.38u w=1u l=0.13u
X93 a_2380_6967.t1 a_1839_6967.t4 VSS.t147 VSS.t128 sg13_lv_nmos ad=0.34p pd=2.68u as=0.34p ps=2.68u w=1u l=0.13u
X94 VSS.t117 VSS.t118 VSS.t41 rppd l=0.5u w=0.5u
X95 a_3317_10309.t0 a_2907_10309.t2 VDD.t69 VDD.t0 sg13_lv_pmos ad=0.68p pd=4.68u as=0.68p ps=4.68u w=2u l=0.13u
X96 a_1839_10309.t0 a_1003_4745.t8 VSS.t240 VSS.t166 sg13_lv_nmos ad=0.19p pd=1.38u as=0.34p ps=2.68u w=1u l=0.13u
X97 VDD.t94 VDD.t95 VSS.t31 rhigh l=0.96u w=0.5u
X98 a_2380_10309.t0 a_1839_10309.t4 VDD.t105 VDD.t0 sg13_lv_pmos ad=0.68p pd=4.68u as=0.68p ps=4.68u w=2u l=0.13u
X99 VSS.t205 VSS.t206 VSS.t0 rppd l=0.5u w=0.5u
X100 a_3009_10831.t0 a_1267_10309.t5 a_2907_10309.t0 VDD.t0 sg13_lv_pmos ad=0.38p pd=2.38u as=0.38p ps=2.38u w=2u l=0.13u
X101 VSS.t256 VX.t6 a_1369_10309.t0 VSS.t251 sg13_lv_nmos ad=0.34p pd=2.68u as=0.19p ps=1.38u w=1u l=0.13u
X102 a_1941_9917.t0 a_1839_10309.t2 a_1839_9195.t1 VSS.t136 sg13_lv_nmos ad=0.19p pd=1.38u as=0.19p ps=1.38u w=1u l=0.13u
X103 a_3521_9195.t2 a_3317_9195.t3 VDD.t104 VDD.t1 sg13_lv_pmos ad=0.38p pd=2.38u as=0.68p ps=4.68u w=2u l=0.13u
X104 VSS.t208 VSS.t209 VSS.t52 rppd l=0.5u w=0.5u
X105 SPIKE.t1 a_2130_4709.t3 VDD.t89 VDD.t4 sg13_lv_pmos ad=0.38p pd=2.38u as=0.38p ps=2.38u w=2u l=0.13u
X106 a_3521_5853.t4 a_3317_5853.t2 VSS.t198 VSS.t199 sg13_lv_nmos ad=0.34p pd=2.68u as=0.19p ps=1.38u w=1u l=0.13u
X107 a_1369_8603.t0 a_1267_9195.t2 a_1267_8081.t0 VDD.t1 sg13_lv_pmos ad=0.38p pd=2.38u as=0.38p ps=2.38u w=2u l=0.13u
X108 VSS.t193 VSS.t194 VSS.t52 rppd l=0.5u w=0.5u
X109 a_3317_5853.t1 a_2907_5853.t2 VSS.t140 VSS.t139 sg13_lv_nmos ad=0.34p pd=2.68u as=0.34p ps=2.68u w=1u l=0.13u
X110 VDD.t99 VDD.t100 VSS.t39 rhigh l=4u w=0.5u
X111 a_3984_11577.t0 MEM.t0 VSS.t39 rhigh l=4u w=0.5u
X112 a_2907_8081.t0 a_2584_8081.t3 a_2805_8603.t0 VDD.t1 sg13_lv_pmos ad=0.38p pd=2.38u as=0.38p ps=2.38u w=2u l=0.13u
X113 VSS.t226 a_1071_4709.t2 a_1003_4745.t3 VSS.t225 sg13_lv_nmos ad=0.34p pd=2.68u as=0.19p ps=1.38u w=1u l=0.13u
X114 a_3521_9195.t0 MEM.t5 VSS.t49 rppd l=0.5u w=0.5u
X115 a_2380_6967.t0 a_1839_6967.t4 VDD.t76 VDD.t9 sg13_lv_pmos ad=0.68p pd=4.68u as=0.68p ps=4.68u w=2u l=0.13u
X116 VSS.t232 VSS.t233 VSS.t90 rppd l=0.5u w=0.5u
X117 VSS.t157 a_3317_10309.t2 a_3521_10309.t4 VSS.t156 sg13_lv_nmos ad=0.19p pd=1.38u as=0.19p ps=1.38u w=1u l=0.13u
X118 VSS.t185 VSS.t186 VSS.t46 rppd l=0.5u w=0.5u
X119 a_2805_6375.t0 a_1839_5853.t2 VDD.t39 VDD.t9 sg13_lv_pmos ad=0.38p pd=2.38u as=0.68p ps=4.68u w=2u l=0.13u
X120 a_2380_8081.t1 a_1839_8081.t4 VSS.t129 VSS.t128 sg13_lv_nmos ad=0.34p pd=2.68u as=0.34p ps=2.68u w=1u l=0.13u
X121 VSS.t42 VSS.t43 VSS.t41 rppd l=0.5u w=0.5u
X122 VDD.t68 a_917_6931.t3 a_1941_6375.t0 VDD.t9 sg13_lv_pmos ad=0.68p pd=4.68u as=0.38p ps=2.38u w=2u l=0.13u
X123 VSS.t103 VSS.t104 VSS.t24 rppd l=0.5u w=0.5u
X124 VDD.t106 VDD.t107 VSS.t4 rhigh l=4u w=0.5u
X125 VX.t0 a_1771_11577.t0 VSS.t4 rhigh l=4u w=0.5u
X126 a_1369_9917.t0 a_1267_10309.t2 a_1267_9195.t0 VSS.t70 sg13_lv_nmos ad=0.19p pd=1.38u as=0.19p ps=1.38u w=1u l=0.13u
X127 a_3521_8081.t1 a_3317_8081.t2 VDD.t6 VDD.t1 sg13_lv_pmos ad=0.68p pd=4.68u as=0.38p ps=2.38u w=2u l=0.13u
X128 VSS.t67 a_3207_4709.t2 a_2840_5276.t1 VSS.t66 sg13_lv_nmos ad=0.34p pd=2.68u as=0.34p ps=2.68u w=1u l=0.65u
X129 a_2907_9195.t1 a_1267_9195.t5 a_2805_9917.t0 VSS.t176 sg13_lv_nmos ad=0.19p pd=1.38u as=0.19p ps=1.38u w=1u l=0.13u
X130 a_3317_8081.t0 a_2907_8081.t2 VDD.t34 VDD.t1 sg13_lv_pmos ad=0.68p pd=4.68u as=0.68p ps=4.68u w=2u l=0.13u
X131 VSS.t25 VSS.t26 VSS.t24 rppd l=0.5u w=0.5u
X132 VDD.t15 a_2769_4709.t2 a_2538_4709.t0 VDD.t4 sg13_lv_pmos ad=0.38p pd=2.38u as=0.68p ps=4.68u w=2u l=0.13u
X133 a_2805_7689.t0 a_1839_6967.t3 VSS.t100 VSS.t99 sg13_lv_nmos ad=0.19p pd=1.38u as=0.34p ps=2.68u w=1u l=0.13u
X134 a_3521_5853.t1 a_3317_5853.t3 VDD.t19 VDD.t9 sg13_lv_pmos ad=0.38p pd=2.38u as=0.68p ps=4.68u w=2u l=0.13u
X135 a_1941_10831.t0 a_1839_5853.t4 a_1839_10309.t1 VDD.t0 sg13_lv_pmos ad=0.38p pd=2.38u as=0.38p ps=2.38u w=2u l=0.13u
X136 a_3317_10309.t1 a_2907_10309.t2 VSS.t137 VSS.t119 sg13_lv_nmos ad=0.34p pd=2.68u as=0.34p ps=2.68u w=1u l=0.13u
X137 a_1839_9195.t0 VDD.t64 VDD.t65 VDD.t1 sg13_lv_pmos ad=0.38p pd=2.38u as=0.68p ps=4.68u w=2u l=0.13u
X138 VSS.t64 VSS.t65 VSS.t7 rppd l=0.5u w=0.5u
X139 VSS.t18 VREF.t1 a_1941_7689.t0 VSS.t14 sg13_lv_nmos ad=0.34p pd=2.68u as=0.19p ps=1.38u w=1u l=0.13u
X140 VSS.t122 VSS.t123 VSS.t71 rppd l=0.5u w=0.5u
X141 VDD.t114 a_3545_4709.t2 a_3207_4709.t0 VDD.t4 sg13_lv_pmos ad=0.68p pd=4.68u as=0.68p ps=4.68u w=2u l=0.65u
X142 VDD.t117 VDD.t118 VSS.t69 rhigh l=4u w=0.5u
X143 a_2380_10309.t1 a_1839_10309.t4 VSS.t210 VSS.t85 sg13_lv_nmos ad=0.34p pd=2.68u as=0.34p ps=2.68u w=1u l=0.13u
X144 a_3521_9195.t5 a_3317_9195.t2 VSS.t241 VSS.t158 sg13_lv_nmos ad=0.34p pd=2.68u as=0.19p ps=1.38u w=1u l=0.13u
X145 VDD.t113 a_1071_4709.t2 a_1003_4745.t1 VDD.t4 sg13_lv_pmos ad=0.68p pd=4.68u as=0.38p ps=2.38u w=2u l=0.13u
X146 VSS.t108 a_2130_4709.t2 SPIKE.t0 VSS.t107 sg13_lv_nmos ad=0.34p pd=2.68u as=0.19p ps=1.38u w=1u l=0.13u
X147 a_3009_10309.t0 a_2584_10309.t2 a_2907_10309.t1 VSS.t10 sg13_lv_nmos ad=0.19p pd=1.38u as=0.19p ps=1.38u w=1u l=0.13u
X148 a_3317_9195.t1 a_2907_9195.t2 VSS.t120 VSS.t119 sg13_lv_nmos ad=0.34p pd=2.68u as=0.34p ps=2.68u w=1u l=0.13u
X149 VSS.t91 VSS.t92 VSS.t90 rppd l=0.5u w=0.5u
X150 a_2897_5460.t0 a_2840_5276.t2 VSS.t35 VSS.t260 sg13_lv_nmos ad=0.19p pd=1.38u as=0.19p ps=1.38u w=1u l=0.13u
X151 VDD.t111 VDD.t112 VSS.t31 rhigh l=0.96u w=0.5u
X152 VSS.t143 VSS.t144 VSS.t24 rppd l=0.5u w=0.5u
X153 a_3521_6967.t2 a_3317_6967.t3 VSS.t150 VSS.t75 sg13_lv_nmos ad=0.19p pd=1.38u as=0.34p ps=2.68u w=1u l=0.13u
X154 a_2805_6967.t0 a_1839_6967.t3 VDD.t31 VDD.t9 sg13_lv_pmos ad=0.38p pd=2.38u as=0.68p ps=4.68u w=2u l=0.13u
X155 VSS.t221 VSS.t222 VSS.t52 rppd l=0.5u w=0.5u
X156 a_1267_9195.t1 VDD.t56 VDD.t57 VDD.t1 sg13_lv_pmos ad=0.38p pd=2.38u as=0.68p ps=4.68u w=2u l=0.13u
X157 VDD.t83 a_917_6931.t4 a_1941_6967.t0 VDD.t9 sg13_lv_pmos ad=0.68p pd=4.68u as=0.38p ps=2.38u w=2u l=0.13u
X158 VSS.t259 VX.t1 a_1369_5853.t0 VSS.t258 sg13_lv_nmos ad=0.34p pd=2.68u as=0.19p ps=1.38u w=1u l=0.13u
X159 VDD.t32 a_2380_10309.t2 a_3009_10831.t0 VDD.t0 sg13_lv_pmos ad=0.68p pd=4.68u as=0.38p ps=2.38u w=2u l=0.13u
X160 a_3009_5853.t0 a_2584_5853.t2 a_2907_5853.t0 VSS.t63 sg13_lv_nmos ad=0.19p pd=1.38u as=0.19p ps=1.38u w=1u l=0.13u
X161 a_3521_10309.t3 a_3317_10309.t2 VDD.t84 VDD.t0 sg13_lv_pmos ad=0.68p pd=4.68u as=0.38p ps=2.38u w=2u l=0.13u
X162 a_3521_9195.t1 MEM.t6 VSS.t49 rppd l=0.5u w=0.5u
X163 a_2805_8081.t0 a_1839_8081.t3 VSS.t234 VSS.t99 sg13_lv_nmos ad=0.19p pd=1.38u as=0.34p ps=2.68u w=1u l=0.13u
X164 VSS.t15 VREF.t3 a_1941_8081.t0 VSS.t14 sg13_lv_nmos ad=0.34p pd=2.68u as=0.19p ps=1.38u w=1u l=0.13u
X165 VSS.t98 a_1692_4709.t2 a_1479_4709.t1 VSS.t97 sg13_lv_nmos ad=0.19p pd=1.38u as=0.34p ps=2.68u w=1u l=0.13u
X166 a_1839_5853.t1 VDD.t66 VDD.t67 VDD.t9 sg13_lv_pmos ad=0.38p pd=2.38u as=0.68p ps=4.68u w=2u l=0.13u
X167 a_1267_10309.t0 VDD.t62 VDD.t63 VDD.t0 sg13_lv_pmos ad=0.38p pd=2.38u as=0.68p ps=4.68u w=2u l=0.13u
X168 a_3521_5853.t5 MEM.t7 VSS.t0 rppd l=0.5u w=0.5u
X169 VSS.t59 VSS.t60 VSS.t52 rppd l=0.5u w=0.5u
X170 a_3521_6967.t1 a_3317_6967.t3 VDD.t77 VDD.t9 sg13_lv_pmos ad=0.38p pd=2.38u as=0.68p ps=4.68u w=2u l=0.13u
X171 VDD.t122 a_3317_9195.t2 a_3521_9195.t2 VDD.t1 sg13_lv_pmos ad=0.38p pd=2.38u as=0.38p ps=2.38u w=2u l=0.13u
X172 VDD.t33 a_2130_4709.t2 SPIKE.t1 VDD.t4 sg13_lv_pmos ad=0.68p pd=4.68u as=0.38p ps=2.38u w=2u l=0.13u
X173 VSS.t216 a_3883_4709.t2 a_3545_4709.t1 VSS.t215 sg13_lv_nmos ad=0.34p pd=2.68u as=0.34p ps=2.68u w=1u l=0.65u
X174 VDD.t86 a_917_8508.t5 a_1369_8603.t0 VDD.t1 sg13_lv_pmos ad=0.68p pd=4.68u as=0.38p ps=2.38u w=2u l=0.13u
X175 VSS.t191 VSS.t192 VSS.t71 rppd l=0.5u w=0.5u
X176 VSS.t135 COMP.t2 a_4221_4709.t1 VSS.t134 sg13_lv_nmos ad=0.34p pd=2.68u as=0.34p ps=2.68u w=1u l=0.65u
X177 VSS.t141 VSS.t142 VSS.t90 rppd l=0.5u w=0.5u
X178 a_3009_8603.t0 a_1267_8081.t5 a_2907_8081.t0 VDD.t1 sg13_lv_pmos ad=0.38p pd=2.38u as=0.38p ps=2.38u w=2u l=0.13u
X179 a_3521_8081.t2 a_3317_8081.t3 VSS.t76 VSS.t75 sg13_lv_nmos ad=0.19p pd=1.38u as=0.34p ps=2.68u w=1u l=0.13u
X180 a_1941_10309.t0 a_1839_5853.t4 a_1839_10309.t0 VSS.t136 sg13_lv_nmos ad=0.19p pd=1.38u as=0.19p ps=1.38u w=1u l=0.13u
X181 VDD.t38 a_2380_9195.t2 a_3009_9195.t0 VDD.t1 sg13_lv_pmos ad=0.68p pd=4.68u as=0.38p ps=2.38u w=2u l=0.13u
X182 a_2584_9195.t0 a_1267_9195.t4 VDD.t23 VDD.t1 sg13_lv_pmos ad=0.68p pd=4.68u as=0.68p ps=4.68u w=2u l=0.13u
X183 a_1839_6967.t0 VSS.t173 VSS.t175 VSS.t174 sg13_lv_nmos ad=0.19p pd=1.38u as=0.34p ps=2.68u w=1u l=0.13u
X184 COMP.t1 a_4828_5366.t3 VDD.t14 VDD.t4 sg13_lv_pmos ad=0.38p pd=2.38u as=0.68p ps=4.68u w=2u l=0.13u
X185 a_2951_11577.t1 a_3837_11577.t1 VSS.t36 rhigh l=4u w=0.5u
X186 a_2380_5853.t1 a_1839_5853.t3 VSS.t188 VSS.t187 sg13_lv_nmos ad=0.34p pd=2.68u as=0.34p ps=2.68u w=1u l=0.13u
X187 VSS.t180 VSS.t181 VSS.t71 rppd l=0.5u w=0.5u
X188 a_1267_5853.t1 VDD.t52 VDD.t53 VDD.t9 sg13_lv_pmos ad=0.38p pd=2.38u as=0.68p ps=4.68u w=2u l=0.13u
X189 VSS.t56 VSS.t57 VSS.t46 rppd l=0.5u w=0.5u
X190 VSS.t37 VSS.t38 VSS.t24 rppd l=0.5u w=0.5u
X191 VDD.t91 VDD.t92 VSS.t89 rhigh l=0.96u w=0.5u
X192 VDD.t27 VDD.t28 VSS.t89 rhigh l=0.96u w=0.5u
X193 VSS.t81 VSS.t82 VSS.t7 rppd l=0.5u w=0.5u
X194 VDD.t116 a_917_6931.t7 a_1941_10831.t0 VDD.t0 sg13_lv_pmos ad=0.68p pd=4.68u as=0.38p ps=2.38u w=2u l=0.13u
X195 VSS.t252 VX.t5 a_1369_9917.t0 VSS.t251 sg13_lv_nmos ad=0.34p pd=2.68u as=0.19p ps=1.38u w=1u l=0.13u
X196 a_3009_9917.t0 a_2584_9195.t3 a_2907_9195.t1 VSS.t10 sg13_lv_nmos ad=0.19p pd=1.38u as=0.19p ps=1.38u w=1u l=0.13u
X197 VDD.t30 a_1692_4709.t2 a_1479_4709.t0 VDD.t4 sg13_lv_pmos ad=0.38p pd=2.38u as=0.68p ps=4.68u w=2u l=0.13u
X198 VSS.t246 VSS.t247 VSS.t24 rppd l=0.5u w=0.5u
X199 VSS.t102 a_2380_10309.t2 a_3009_10309.t0 VSS.t101 sg13_lv_nmos ad=0.34p pd=2.68u as=0.19p ps=1.38u w=1u l=0.13u
X200 VSS.t1 VSS.t2 VSS.t0 rppd l=0.5u w=0.5u
X201 VDD.t97 a_3317_5853.t2 a_3521_5853.t1 VDD.t9 sg13_lv_pmos ad=0.38p pd=2.38u as=0.38p ps=2.38u w=2u l=0.13u
X202 a_3521_10309.t5 a_3317_10309.t2 VSS.t157 VSS.t158 sg13_lv_nmos ad=0.34p pd=2.68u as=0.19p ps=1.38u w=1u l=0.13u
X203 a_1267_6967.t1 VSS.t168 VSS.t169 VSS.t124 sg13_lv_nmos ad=0.19p pd=1.38u as=0.34p ps=2.68u w=1u l=0.13u
X204 VSS.t154 VSS.t155 VSS.t71 rppd l=0.5u w=0.5u
X205 a_1839_6967.t1 VDD.t50 VDD.t51 VDD.t9 sg13_lv_pmos ad=0.38p pd=2.38u as=0.68p ps=4.68u w=2u l=0.13u
X206 a_1941_9195.t0 a_1839_10309.t2 a_1839_9195.t0 VDD.t1 sg13_lv_pmos ad=0.38p pd=2.38u as=0.38p ps=2.38u w=2u l=0.13u
X207 a_2380_8081.t0 a_1839_8081.t4 VDD.t40 VDD.t1 sg13_lv_pmos ad=0.68p pd=4.68u as=0.68p ps=4.68u w=2u l=0.13u
X208 a_4828_5366.t0 MEM.t12 VDD.t41 VDD.t4 sg13_lv_pmos ad=0.38p pd=2.38u as=0.38p ps=2.38u w=2u l=0.13u
X209 VSS.t219 VSS.t220 VSS.t49 rppd l=0.5u w=0.5u
X210 a_1267_10309.t1 a_1003_4745.t9 VSS.t202 VSS.t171 sg13_lv_nmos ad=0.19p pd=1.38u as=0.34p ps=2.68u w=1u l=0.13u
X211 VDD.t87 a_4221_4709.t2 a_3883_4709.t0 VDD.t4 sg13_lv_pmos ad=0.68p pd=4.68u as=0.68p ps=4.68u w=2u l=0.65u
X212 VDD.t29 a_2380_5853.t2 a_3009_6375.t0 VDD.t9 sg13_lv_pmos ad=0.68p pd=4.68u as=0.38p ps=2.38u w=2u l=0.13u
X213 a_1839_8081.t1 a_1003_4745.t6 VSS.t211 VSS.t174 sg13_lv_nmos ad=0.19p pd=1.38u as=0.34p ps=2.68u w=1u l=0.13u
X214 a_2584_5853.t0 a_1267_5853.t3 VDD.t110 VDD.t9 sg13_lv_pmos ad=0.68p pd=4.68u as=0.68p ps=4.68u w=2u l=0.13u
X215 a_3984_11577.t1 a_2951_11577.t0 VSS.t39 rhigh l=4u w=0.5u
X216 VSS.t47 VSS.t48 VSS.t46 rppd l=0.5u w=0.5u
X217 a_2769_4709.t1 COMP.t3 a_2897_5460.t0 VSS.t133 sg13_lv_nmos ad=0.34p pd=2.68u as=0.19p ps=1.38u w=1u l=0.13u
X218 VSS.t151 a_3317_6967.t2 a_3521_6967.t2 VSS.t11 sg13_lv_nmos ad=0.19p pd=1.38u as=0.19p ps=1.38u w=1u l=0.13u
X219 VSS.t223 VSS.t224 VSS.t46 rppd l=0.5u w=0.5u
X220 a_2380_9195.t1 a_1839_9195.t4 VSS.t86 VSS.t85 sg13_lv_nmos ad=0.34p pd=2.68u as=0.34p ps=2.68u w=1u l=0.13u
X221 a_1267_6967.t0 VDD.t58 VDD.t59 VDD.t9 sg13_lv_pmos ad=0.38p pd=2.38u as=0.68p ps=4.68u w=2u l=0.13u
X222 a_885_11577.t1 a_1771_11577.t1 VSS.t4 rhigh l=4u w=0.5u
X223 a_1369_9195.t0 a_1267_10309.t2 a_1267_9195.t1 VDD.t1 sg13_lv_pmos ad=0.38p pd=2.38u as=0.38p ps=2.38u w=2u l=0.13u
X224 VSS.t28 a_2380_6967.t2 a_3009_7689.t0 VSS.t27 sg13_lv_nmos ad=0.34p pd=2.68u as=0.19p ps=1.38u w=1u l=0.13u
X225 a_2907_9195.t0 a_2584_9195.t2 a_2805_9195.t0 VDD.t1 sg13_lv_pmos ad=0.38p pd=2.38u as=0.38p ps=2.38u w=2u l=0.13u
X226 VSS.t148 VSS.t149 VSS.t49 rppd l=0.5u w=0.5u
X227 a_2584_6967.t1 a_1267_6967.t4 VSS.t243 VSS.t115 sg13_lv_nmos ad=0.34p pd=2.68u as=0.34p ps=2.68u w=1u l=0.13u
X228 a_2805_5853.t0 a_1839_5853.t2 VSS.t127 VSS.t126 sg13_lv_nmos ad=0.19p pd=1.38u as=0.34p ps=2.68u w=1u l=0.13u
X229 VSS.t87 VSS.t88 VSS.t7 rppd l=0.5u w=0.5u
X230 a_1267_8081.t1 a_1003_4745.t7 VSS.t125 VSS.t124 sg13_lv_nmos ad=0.19p pd=1.38u as=0.34p ps=2.68u w=1u l=0.13u
X231 VSS.t17 VREF.t0 a_1941_5853.t0 VSS.t16 sg13_lv_nmos ad=0.34p pd=2.68u as=0.19p ps=1.38u w=1u l=0.13u
X232 a_3521_5853.t0 MEM.t1 VSS.t0 rppd l=0.5u w=0.5u
X233 a_1692_4709.t1 COMP.t4 VSS.t98 VSS.t132 sg13_lv_nmos ad=0.19p pd=1.38u as=0.19p ps=1.38u w=1u l=0.13u
X234 VSS.t20 VREF.t5 a_1941_10309.t0 VSS.t19 sg13_lv_nmos ad=0.34p pd=2.68u as=0.19p ps=1.38u w=1u l=0.13u
X235 a_1941_6375.t0 a_1839_6967.t2 a_1839_5853.t1 VDD.t9 sg13_lv_pmos ad=0.38p pd=2.38u as=0.38p ps=2.38u w=2u l=0.13u
X236 VDD.t102 VDD.t103 VSS.t36 rhigh l=4u w=0.5u
X237 VSS.t263 VSS.t264 VSS.t24 rppd l=0.5u w=0.5u
X238 a_917_6931.t0 VREF.t2 VSS.t23 VSS.t22 sg13_lv_nmos ad=0.34p pd=2.68u as=0.34p ps=2.68u w=1u l=0.13u
X239 COMP.t0 a_4828_5366.t3 VSS.t33 VSS.t32 sg13_lv_nmos ad=0.19p pd=1.38u as=0.34p ps=2.68u w=1u l=0.13u
X240 VDD.t78 a_3317_6967.t2 a_3521_6967.t1 VDD.t9 sg13_lv_pmos ad=0.38p pd=2.38u as=0.38p ps=2.38u w=2u l=0.13u
X241 a_3521_6967.t0 MEM.t2 VSS.t7 rppd l=0.5u w=0.5u
X242 a_3521_9195.t4 a_3317_9195.t2 VDD.t122 VDD.t1 sg13_lv_pmos ad=0.68p pd=4.68u as=0.38p ps=2.38u w=2u l=0.13u
X243 VSS.t189 VSS.t190 VSS.t46 rppd l=0.5u w=0.5u
X244 a_3521_10309.t0 MEM.t3 VSS.t49 rppd l=0.5u w=0.5u
X245 VSS.t235 VSS.t236 VSS.t71 rppd l=0.5u w=0.5u
X246 VSS.t184 a_1479_4709.t2 a_1071_4709.t1 VSS.t183 sg13_lv_nmos ad=0.34p pd=2.68u as=0.34p ps=2.68u w=1u l=0.13u
X247 a_3521_5853.t2 a_3317_5853.t3 VSS.t62 VSS.t61 sg13_lv_nmos ad=0.19p pd=1.38u as=0.34p ps=2.68u w=1u l=0.13u
X248 a_3317_9195.t0 a_2907_9195.t2 VDD.t37 VDD.t1 sg13_lv_pmos ad=0.68p pd=4.68u as=0.68p ps=4.68u w=2u l=0.13u
X249 a_2805_8603.t0 a_1839_8081.t3 VDD.t115 VDD.t1 sg13_lv_pmos ad=0.38p pd=2.38u as=0.68p ps=4.68u w=2u l=0.13u
X250 VSS.t12 a_3317_8081.t2 a_3521_8081.t2 VSS.t11 sg13_lv_nmos ad=0.19p pd=1.38u as=0.19p ps=1.38u w=1u l=0.13u
X251 a_2584_6967.t0 a_1267_6967.t4 VDD.t124 VDD.t9 sg13_lv_pmos ad=0.68p pd=4.68u as=0.68p ps=4.68u w=2u l=0.13u
X252 VDD.t10 a_2380_6967.t2 a_3009_6967.t0 VDD.t9 sg13_lv_pmos ad=0.68p pd=4.68u as=0.38p ps=2.38u w=2u l=0.13u
X253 VDD.t36 a_917_6931.t5 a_1941_8603.t0 VDD.t1 sg13_lv_pmos ad=0.68p pd=4.68u as=0.38p ps=2.38u w=2u l=0.13u
X254 VDD.t41 a_4828_5366.t2 COMP.t1 VDD.t4 sg13_lv_pmos ad=0.38p pd=2.38u as=0.38p ps=2.38u w=2u l=0.13u
X255 a_1369_10831.t0 a_1267_5853.t5 a_1267_10309.t0 VDD.t0 sg13_lv_pmos ad=0.38p pd=2.38u as=0.38p ps=2.38u w=2u l=0.13u
X256 a_1941_7689.t0 a_1839_8081.t2 a_1839_6967.t0 VSS.t40 sg13_lv_nmos ad=0.19p pd=1.38u as=0.19p ps=1.38u w=1u l=0.13u
X257 VDD.t20 a_3207_4709.t2 a_2840_5276.t0 VDD.t4 sg13_lv_pmos ad=0.68p pd=4.68u as=0.68p ps=4.68u w=2u l=0.65u
X258 VSS.t249 a_1071_4709.t3 a_1003_4745.t2 VSS.t248 sg13_lv_nmos ad=0.19p pd=1.38u as=0.34p ps=2.68u w=1u l=0.13u
X259 VSS.t195 VSS.t196 VSS.t71 rppd l=0.5u w=0.5u
X260 VSS.t265 a_2380_8081.t2 a_3009_8081.t0 VSS.t27 sg13_lv_nmos ad=0.34p pd=2.68u as=0.19p ps=1.38u w=1u l=0.13u
X261 a_1369_6375.t0 a_1267_6967.t2 a_1267_5853.t1 VDD.t9 sg13_lv_pmos ad=0.38p pd=2.38u as=0.38p ps=2.38u w=2u l=0.13u
X262 a_2584_8081.t1 a_1267_8081.t4 VSS.t116 VSS.t115 sg13_lv_nmos ad=0.34p pd=2.68u as=0.34p ps=2.68u w=1u l=0.13u
X263 a_917_6931.t2 a_917_6931.t1 VDD.t109 VDD.t9 sg13_lv_pmos ad=0.68p pd=4.68u as=0.68p ps=4.68u w=2u l=0.13u
X264 a_2907_5853.t1 a_2584_5853.t3 a_2805_6375.t0 VDD.t9 sg13_lv_pmos ad=0.38p pd=2.38u as=0.38p ps=2.38u w=2u l=0.13u
X265 a_3521_6967.t5 MEM.t10 VSS.t7 rppd l=0.5u w=0.5u
X266 VDD.t21 VDD.t22 VSS.t69 rhigh l=4u w=0.5u
X267 a_3521_10309.t1 MEM.t4 VSS.t49 rppd l=0.5u w=0.5u
X268 a_917_8508.t2 VX.t4 VSS.t255 VSS.t22 sg13_lv_nmos ad=0.34p pd=2.68u as=0.34p ps=2.68u w=1u l=0.13u
X269 a_1820_4745.t0 COMP.t4 VDD.t30 VDD.t4 sg13_lv_pmos ad=0.38p pd=2.38u as=0.38p ps=2.38u w=2u l=0.13u
X270 a_4828_5366.t1 MEM.t12 VSS.t131 VSS.t237 sg13_lv_nmos ad=0.19p pd=1.38u as=0.19p ps=1.38u w=1u l=0.13u
X271 a_1918_11577.t1 a_2804_11753.t1 VSS.t69 rhigh l=4u w=0.5u
X272 VDD.t45 VDD.t46 VSS.t39 rhigh l=4u w=0.5u
X273 a_2805_9917.t0 a_1839_9195.t3 VSS.t45 VSS.t44 sg13_lv_nmos ad=0.19p pd=1.38u as=0.34p ps=2.68u w=1u l=0.13u
X274 a_3521_8081.t0 a_3317_8081.t3 VDD.t24 VDD.t1 sg13_lv_pmos ad=0.38p pd=2.38u as=0.68p ps=4.68u w=2u l=0.13u
X275 a_3521_10309.t2 a_3317_10309.t3 VDD.t101 VDD.t0 sg13_lv_pmos ad=0.38p pd=2.38u as=0.68p ps=4.68u w=2u l=0.13u
X276 VSS.t21 VREF.t4 a_1941_9917.t0 VSS.t19 sg13_lv_nmos ad=0.34p pd=2.68u as=0.19p ps=1.38u w=1u l=0.13u
X277 VSS.t200 VSS.t201 VSS.t52 rppd l=0.5u w=0.5u
X278 VSS.t230 VSS.t231 VSS.t41 rppd l=0.5u w=0.5u
X279 a_2584_10309.t0 a_1267_10309.t4 VDD.t11 VDD.t0 sg13_lv_pmos ad=0.68p pd=4.68u as=0.68p ps=4.68u w=2u l=0.13u
X280 a_3521_5853.t3 a_3317_5853.t2 VDD.t97 VDD.t9 sg13_lv_pmos ad=0.68p pd=4.68u as=0.38p ps=2.38u w=2u l=0.13u
X281 a_1369_7689.t0 a_1267_8081.t2 a_1267_6967.t1 VSS.t3 sg13_lv_nmos ad=0.19p pd=1.38u as=0.19p ps=1.38u w=1u l=0.13u
X282 a_1941_6967.t0 a_1839_8081.t2 a_1839_6967.t1 VDD.t9 sg13_lv_pmos ad=0.38p pd=2.38u as=0.38p ps=2.38u w=2u l=0.13u
X283 a_2769_4709.t0 a_2840_5276.t2 VDD.t15 VDD.t4 sg13_lv_pmos ad=0.38p pd=2.38u as=0.38p ps=2.38u w=2u l=0.13u
X284 VDD.t12 VDD.t13 VSS.t31 rhigh l=0.96u w=0.5u
X285 VDD.t17 VDD.t18 VSS.t31 rhigh l=0.96u w=0.5u
X286 a_2907_6967.t0 a_1267_6967.t5 a_2805_7689.t0 VSS.t68 sg13_lv_nmos ad=0.19p pd=1.38u as=0.19p ps=1.38u w=1u l=0.13u
X287 VDD.t121 MEM.t11 a_4828_5366.t0 VDD.t120 sg13_lv_pmos ad=0.68p pd=4.68u as=0.38p ps=2.38u w=2u l=0.13u
X288 VDD.t93 a_1479_4709.t2 a_1071_4709.t0 VDD.t4 sg13_lv_pmos ad=0.68p pd=4.68u as=0.68p ps=4.68u w=2u l=0.13u
X289 a_3317_5853.t0 a_2907_5853.t2 VDD.t71 VDD.t9 sg13_lv_pmos ad=0.68p pd=4.68u as=0.68p ps=4.68u w=2u l=0.13u
X290 VDD.t2 VDD.t3 VSS.t4 rhigh l=4u w=0.5u
X291 a_2805_10831.t0 a_1839_10309.t3 VDD.t70 VDD.t0 sg13_lv_pmos ad=0.38p pd=2.38u as=0.68p ps=4.68u w=2u l=0.13u
X292 a_1941_8081.t0 a_1839_9195.t2 a_1839_8081.t1 VSS.t40 sg13_lv_nmos ad=0.19p pd=1.38u as=0.19p ps=1.38u w=1u l=0.13u
X293 a_1839_5853.t0 a_1003_4745.t4 VSS.t214 VSS.t213 sg13_lv_nmos ad=0.19p pd=1.38u as=0.34p ps=2.68u w=1u l=0.13u
R0 SPIKE.n2 SPIKE.n0 9.44825
R1 SPIKE.n2 SPIKE.n1 9.00165
R2 SPIKE.n1 SPIKE.t2 5.78405
R3 SPIKE.n0 SPIKE.t0 5.78362
R4 SPIKE.n1 SPIKE.t3 4.44314
R5 SPIKE.n0 SPIKE.t1 4.44314
R6 SPIKE SPIKE.n2 4.3147
R7 RST RST.t0 28.0221
R8 COMP.n1 COMP.t4 26.5921
R9 COMP.n2 COMP.t2 24.0005
R10 COMP.n1 COMP.t3 24.0005
R11 COMP COMP.n3 10.8897
R12 COMP.n3 COMP.n0 9.3679
R13 COMP.n0 COMP.t0 6.42431
R14 COMP.n2 COMP.n1 3.8527
R15 COMP.n0 COMP.t1 3.74891
R16 COMP.n3 COMP.n2 0.274641
R17 VREF.n4 VREF.t2 42.0284
R18 VREF.n3 VREF.t0 36.5878
R19 VREF.n0 VREF.t5 35.0698
R20 VREF.n2 VREF.t1 33.5087
R21 VREF.n1 VREF.t3 33.5087
R22 VREF.n0 VREF.t4 33.5087
R23 VREF.n4 VREF.n3 12.0519
R24 VREF.n1 VREF.n0 3.28639
R25 VREF VREF.n4 1.6197
R26 VREF.n2 VREF.n1 1.56159
R27 VREF.n3 VREF.n2 0.17999
R28 MEM.n6 MEM.t0 26.8055
R29 MEM.n1 MEM.t11 24.3107
R30 MEM.n1 MEM.t12 24.0555
R31 MEM.n3 MEM.t3 15.2221
R32 MEM.n5 MEM.t5 15.2221
R33 MEM.n9 MEM.t9 15.2221
R34 MEM.n11 MEM.t10 15.2221
R35 MEM.n12 MEM.t1 15.2221
R36 MEM.n3 MEM.t4 15.1689
R37 MEM.n5 MEM.t6 15.1689
R38 MEM.n9 MEM.t8 15.1689
R39 MEM.n11 MEM.t2 15.1689
R40 MEM.n12 MEM.t7 15.1689
R41 MEM.n4 MEM.n3 7.78544
R42 MEM.n8 MEM.n5 7.78544
R43 MEM.n10 MEM.n9 7.78544
R44 MEM.n14 MEM.n11 7.78544
R45 MEM.n13 MEM.n12 7.78544
R46 MEM.n2 MEM.n1 4.98455
R47 MEM.n15 MEM.n14 2.2505
R48 MEM.n10 MEM.n0 2.2505
R49 MEM.n8 MEM.n7 2.2505
R50 MEM.n15 MEM.n2 2.2017
R51 MEM.n7 MEM.n6 1.93026
R52 MEM.n14 MEM.n10 0.811975
R53 MEM.n16 MEM.n15 0.806205
R54 MEM.n8 MEM.n4 0.804762
R55 MEM.n10 MEM.n8 0.798271
R56 MEM.n7 MEM.n0 0.798271
R57 MEM.n14 MEM.n13 0.770139
R58 MEM MEM.n16 0.2909
R59 MEM.n6 MEM.n4 0.275903
R60 MEM.n13 MEM.n2 0.20783
R61 MEM.n16 MEM.n0 0.00627049
R62 VX.n4 VX.t4 42.0014
R63 VX.n1 VX.t1 36.8093
R64 VX.n0 VX.t6 35.0905
R65 VX.n0 VX.t5 33.5021
R66 VX.n2 VX.t3 33.5021
R67 VX.n1 VX.t2 33.5021
R68 VX.n5 VX.t0 31.178
R69 VX.n4 VX.n3 10.6997