* NGSPICE file created from LIF_neuron.ext - technology: ihp-sg13g2

.subckt LIF_neuron VDD Vx MEM RST SPIKE VSS Vref
X0 VSS.t78 VSS.t79 sub! rppd l=0.5u w=0.5u
X1 a_3521_6967# a_3317_6967# VSS.t81 VSS.t84 sg13_lv_nmos ad=0.34p pd=2.68u as=0.19p ps=1.38u w=1u l=0.13u
X2 VSS.t167 VSS.t168 sub! rppd l=0.5u w=0.5u
X3 VSS.t205 a_3545_4709# a_3207_4709# VSS.t89 sg13_lv_nmos ad=0.34p pd=2.68u as=0.34p ps=2.68u w=1u l=0.65u
X4 a_3317_6967# a_2907_6967# VSS.t192 VSS.t93 sg13_lv_nmos ad=0.34p pd=2.68u as=0.34p ps=2.68u w=1u l=0.13u
X5 a_1369_6967# a_1267_8081# a_1267_6967# VDD.t6 sg13_lv_pmos ad=0.38p pd=2.38u as=0.38p ps=2.38u w=2u l=0.13u
X6 a_2907_10309# a_2584_10309# a_2805_10831# VDD.t13 sg13_lv_pmos ad=0.38p pd=2.38u as=0.38p ps=2.38u w=2u l=0.13u
X7 a_1369_10309# a_1267_5853.t2 a_1267_10309# VSS.t159 sg13_lv_nmos ad=0.19p pd=1.38u as=0.19p ps=1.38u w=1u l=0.13u
X8 VDD.t74 a_917_8508.t3 a_1369_9195# VDD.t4 sg13_lv_pmos ad=0.68p pd=4.68u as=0.38p ps=2.38u w=2u l=0.13u
X9 a_2907_6967# a_2584_6967# a_2805_6967# VDD.t6 sg13_lv_pmos ad=0.38p pd=2.38u as=0.38p ps=2.38u w=2u l=0.13u
X10 VSS.t12 VSS.t13 sub! rppd l=0.5u w=0.5u
X11 VDD.t70 VDD.t71 sub! rhigh l=4u w=0.5u
X12 a_3009_9195# a_1267_9195# a_2907_9195# VDD.t4 sg13_lv_pmos ad=0.38p pd=2.38u as=0.38p ps=2.38u w=2u l=0.13u
X13 a_1839_8081# VDD.t65 VDD.t66 VDD.t4 sg13_lv_pmos ad=0.38p pd=2.38u as=0.68p ps=4.68u w=2u l=0.13u
X14 a_1267_5853.t0 Ven VSS.t11 VSS.t10 sg13_lv_nmos ad=0.19p pd=1.38u as=0.34p ps=2.68u w=1u l=0.13u
X15 a_1369_8081# a_1267_9195# a_1267_8081# VSS.t166 sg13_lv_nmos ad=0.19p pd=1.38u as=0.19p ps=1.38u w=1u l=0.13u
X16 VDD.t38 vCMP.t2 a_4221_4709# VDD.t2 sg13_lv_pmos ad=0.68p pd=4.68u as=0.68p ps=4.68u w=2u l=0.65u
X17 VDD.t5 a_3883_4709# a_3545_4709# VDD.t2 sg13_lv_pmos ad=0.68p pd=4.68u as=0.68p ps=4.68u w=2u l=0.65u
X18 a_2907_8081# a_1267_8081# a_2805_8081# VSS.t145 sg13_lv_nmos ad=0.19p pd=1.38u as=0.19p ps=1.38u w=1u l=0.13u
X19 VSS.t233 Ven.t6 a_1692_4709# VSS.t232 sg13_lv_nmos ad=0.34p pd=2.68u as=0.19p ps=1.38u w=1u l=0.13u
X20 VSS.t110 VSS.t111 sub! rppd l=0.5u w=0.5u
X21 VSS.t137 a_4828_5366# vCMP.t0 VSS.t136 sg13_lv_nmos ad=0.19p pd=1.38u as=0.19p ps=1.38u w=1u l=0.13u
X22 a_3521_6967# a_3317_6967# VDD.t18 VDD.t6 sg13_lv_pmos ad=0.68p pd=4.68u as=0.38p ps=2.38u w=2u l=0.13u
X23 a_3521_10309# a_3317_10309# VSS.t230 VSS.t218 sg13_lv_nmos ad=0.19p pd=1.38u as=0.34p ps=2.68u w=1u l=0.13u
X24 VDD.t73 a_2538_4709# a_2130_4709# VDD.t2 sg13_lv_pmos ad=0.68p pd=4.68u as=0.68p ps=4.68u w=2u l=0.13u
X25 a_1902_11577# a_2788_11753# sub! rhigh l=4u w=0.5u
X26 a_3992_11577# VOUT.t0 sub! rhigh l=4u w=0.5u
X27 a_2584_10309# a_1267_10309# VSS.t172 VSS.t164 sg13_lv_nmos ad=0.34p pd=2.68u as=0.34p ps=2.68u w=1u l=0.13u
X28 a_3317_6967# a_2907_6967# VDD.t85 VDD.t6 sg13_lv_pmos ad=0.68p pd=4.68u as=0.68p ps=4.68u w=2u l=0.13u
X29 a_1839_9195# VSS.t76 VSS.t77 VSS.t8 sg13_lv_nmos ad=0.19p pd=1.38u as=0.34p ps=2.68u w=1u l=0.13u
X30 VDD.t43 a_2130_4709# SPIKE.t3 VDD.t2 sg13_lv_pmos ad=0.38p pd=2.38u as=0.68p ps=4.68u w=2u l=0.13u
X31 VSS.t88 a_3317_5853# a_3521_5853# VSS.t89 sg13_lv_nmos ad=0.19p pd=1.38u as=0.19p ps=1.38u w=1u l=0.13u
X32 VSS.t247 VSS.t248 sub! rppd l=0.5u w=0.5u
X33 a_1267_8081# VDD.t63 VDD.t64 VDD.t4 sg13_lv_pmos ad=0.38p pd=2.38u as=0.68p ps=4.68u w=2u l=0.13u
X34 a_3521_8081# a_3317_8081# VSS.t90 VSS.t84 sg13_lv_nmos ad=0.34p pd=2.68u as=0.19p ps=1.38u w=1u l=0.13u
X35 VSS.t108 VSS.t109 sub! rppd l=0.5u w=0.5u
X36 a_2805_10309# a_1839_10309# VSS.t237 VSS.t236 sg13_lv_nmos ad=0.19p pd=1.38u as=0.34p ps=2.68u w=1u l=0.13u
X37 a_3317_8081# a_2907_8081# VSS.t94 VSS.t93 sg13_lv_nmos ad=0.34p pd=2.68u as=0.34p ps=2.68u w=1u l=0.13u
X38 Ven a_1071_4709# VSS.t239 VSS.t242 sg13_lv_nmos ad=0.19p pd=1.38u as=0.19p ps=1.38u w=1u l=0.13u
X39 VSS.t28 a_2380_5853# a_3009_5853# VSS.t27 sg13_lv_nmos ad=0.34p pd=2.68u as=0.19p ps=1.38u w=1u l=0.13u
X40 VSS.t214 VSS.t215 sub! rppd l=0.5u w=0.5u
X41 VSS.t36 VSS.t37 sub! rppd l=0.5u w=0.5u
X42 a_2584_5853# a_1267_5853.t3 VSS.t161 VSS.t160 sg13_lv_nmos ad=0.34p pd=2.68u as=0.34p ps=2.68u w=1u l=0.13u
X43 VSS.t16 VSS.t17 sub! rppd l=0.5u w=0.5u
X44 VDD.t112 a_917_8508.t4 a_1369_6375# VDD.t6 sg13_lv_pmos ad=0.68p pd=4.68u as=0.38p ps=2.38u w=2u l=0.13u
X45 a_2380_9195# a_1839_9195# VDD.t110 VDD.t4 sg13_lv_pmos ad=0.68p pd=4.68u as=0.68p ps=4.68u w=2u l=0.13u
X46 a_3009_6375# a_1267_5853.t4 a_2907_5853# VDD.t6 sg13_lv_pmos ad=0.38p pd=2.38u as=0.38p ps=2.38u w=2u l=0.13u
X47 a_3521_8081# VOUT.t9 sub! rppd l=0.5u w=0.5u
X48 a_1839_10309# VDD.t61 VDD.t62 VDD.t13 sg13_lv_pmos ad=0.38p pd=2.38u as=0.68p ps=4.68u w=2u l=0.13u
X49 a_1692_4709# Ven.t6 a_1820_4745# VDD.t2 sg13_lv_pmos ad=0.68p pd=4.68u as=0.38p ps=2.38u w=2u l=0.13u
X50 VSS.t107 VOUT.t11 a_4828_5366# VSS.t106 sg13_lv_nmos ad=0.34p pd=2.68u as=0.19p ps=1.38u w=1u l=0.13u
X51 VSS.t113 VSS.t114 sub! rppd l=0.5u w=0.5u
X52 a_1267_9195# VSS.t74 VSS.t75 VSS.t6 sg13_lv_nmos ad=0.19p pd=1.38u as=0.34p ps=2.68u w=1u l=0.13u
X53 VSS.t175 VSS.t176 sub! rppd l=0.5u w=0.5u
X54 VDD.t25 a_3317_8081# a_3521_8081# VDD.t4 sg13_lv_pmos ad=0.38p pd=2.38u as=0.38p ps=2.38u w=2u l=0.13u
X55 a_2907_10309# a_1267_10309# a_2805_10309# VSS.t163 sg13_lv_nmos ad=0.19p pd=1.38u as=0.19p ps=1.38u w=1u l=0.13u
X56 VDD.t113 a_917_8508.t5 a_1369_10831# VDD.t13 sg13_lv_pmos ad=0.68p pd=4.68u as=0.38p ps=2.38u w=2u l=0.13u
X57 VDD.t11 a_2380_8081# a_3009_8603# VDD.t4 sg13_lv_pmos ad=0.68p pd=4.68u as=0.38p ps=2.38u w=2u l=0.13u
X58 VSS.t182 Vctr.t1 a_1369_7689# VSS.t181 sg13_lv_nmos ad=0.34p pd=2.68u as=0.19p ps=1.38u w=1u l=0.13u
X59 VDD.t111 vCMP.t3 a_2769_4709# VDD.t2 sg13_lv_pmos ad=0.68p pd=4.68u as=0.38p ps=2.38u w=2u l=0.13u
X60 a_2584_8081# a_1267_8081# VDD.t99 VDD.t4 sg13_lv_pmos ad=0.68p pd=4.68u as=0.68p ps=4.68u w=2u l=0.13u
X61 a_3009_7689# a_2584_6967# a_2907_6967# VSS.t186 sg13_lv_nmos ad=0.19p pd=1.38u as=0.19p ps=1.38u w=1u l=0.13u
X62 a_1941_5853# a_1839_6967# a_1839_5853.t0 VSS.t63 sg13_lv_nmos ad=0.19p pd=1.38u as=0.19p ps=1.38u w=1u l=0.13u
X63 VSS.t119 VSS.t120 sub! rppd l=0.5u w=0.5u
X64 VSS.t221 a_3317_9195# a_3521_9195# VSS.t222 sg13_lv_nmos ad=0.19p pd=1.38u as=0.19p ps=1.38u w=1u l=0.13u
X65 a_917_8508.t1 a_917_8508.t0 VDD.t69 VDD.t4 sg13_lv_pmos ad=0.68p pd=4.68u as=0.68p ps=4.68u w=2u l=0.13u
X66 VSS.t193 VSS.t194 sub! rppd l=0.5u w=0.5u
X67 Ven a_1071_4709# VDD.t105 VDD.t2 sg13_lv_pmos ad=0.38p pd=2.38u as=0.38p ps=2.38u w=2u l=0.13u
X68 VDD.t97 a_3317_10309# a_3521_10309# VDD.t13 sg13_lv_pmos ad=0.38p pd=2.38u as=0.38p ps=2.38u w=2u l=0.13u
X69 SPIKE.t1 a_2130_4709# VSS.t141 VSS.t144 sg13_lv_nmos ad=0.19p pd=1.38u as=0.19p ps=1.38u w=1u l=0.13u
X70 a_2380_5853# a_1839_5853.t2 VDD.t28 VDD.t6 sg13_lv_pmos ad=0.68p pd=4.68u as=0.68p ps=4.68u w=2u l=0.13u
X71 VSS.t189 a_2380_9195# a_3009_9917# VSS.t57 sg13_lv_nmos ad=0.34p pd=2.68u as=0.19p ps=1.38u w=1u l=0.13u
X72 VSS.t38 VSS.t39 sub! rppd l=0.5u w=0.5u
X73 a_2584_9195# a_1267_9195# VSS.t165 VSS.t164 sg13_lv_nmos ad=0.34p pd=2.68u as=0.34p ps=2.68u w=1u l=0.13u
X74 VDD.t114 a_917_8508.t6 a_1369_6967# VDD.t6 sg13_lv_pmos ad=0.68p pd=4.68u as=0.38p ps=2.38u w=2u l=0.13u
X75 VSS.t223 VSS.t224 sub! rppd l=0.5u w=0.5u
X76 a_3009_6967# a_1267_6967# a_2907_6967# VDD.t6 sg13_lv_pmos ad=0.38p pd=2.38u as=0.38p ps=2.38u w=2u l=0.13u
X77 VSS.t191 a_4221_4709# a_3883_4709# VSS.t190 sg13_lv_nmos ad=0.34p pd=2.68u as=0.34p ps=2.68u w=1u l=0.65u
X78 VDD.t31 VDD.t32 sub! rhigh l=4u w=0.5u
X79 a_2805_9195# a_1839_9195# VDD.t109 VDD.t4 sg13_lv_pmos ad=0.38p pd=2.38u as=0.68p ps=4.68u w=2u l=0.13u
X80 a_1941_8603# a_1839_9195# a_1839_8081# VDD.t4 sg13_lv_pmos ad=0.38p pd=2.38u as=0.38p ps=2.38u w=2u l=0.13u
X81 a_1369_5853# a_1267_6967# a_1267_5853.t0 VSS.t148 sg13_lv_nmos ad=0.19p pd=1.38u as=0.19p ps=1.38u w=1u l=0.13u
X82 VDD.t86 a_917_6931.t3 a_1941_9195# VDD.t4 sg13_lv_pmos ad=0.68p pd=4.68u as=0.38p ps=2.38u w=2u l=0.13u
X83 VSS.t183 Vctr.t2 a_1369_8081# VSS.t181 sg13_lv_nmos ad=0.34p pd=2.68u as=0.19p ps=1.38u w=1u l=0.13u
X84 a_2907_5853# a_1267_5853.t5 a_2805_5853# VSS.t112 sg13_lv_nmos ad=0.19p pd=1.38u as=0.19p ps=1.38u w=1u l=0.13u
X85 VSS.t23 VSS.t24 sub! rppd l=0.5u w=0.5u
X86 a_1839_10309# Ven VSS.t9 VSS.t8 sg13_lv_nmos ad=0.19p pd=1.38u as=0.34p ps=2.68u w=1u l=0.13u
X87 a_3009_8081# a_2584_8081# a_2907_8081# VSS.t186 sg13_lv_nmos ad=0.19p pd=1.38u as=0.19p ps=1.38u w=1u l=0.13u
X88 a_2380_6967# a_1839_6967# VSS.t62 VSS.t61 sg13_lv_nmos ad=0.34p pd=2.68u as=0.34p ps=2.68u w=1u l=0.13u
X89 a_3317_10309# a_2907_10309# VDD.t75 VDD.t13 sg13_lv_pmos ad=0.68p pd=4.68u as=0.68p ps=4.68u w=2u l=0.13u
X90 a_3521_9195# VOUT.t6 sub! rppd l=0.5u w=0.5u
X91 a_856_11577# a_1742_11577# sub! rhigh l=4u w=0.5u
X92 a_2380_10309# a_1839_10309# VDD.t104 VDD.t13 sg13_lv_pmos ad=0.68p pd=4.68u as=0.68p ps=4.68u w=2u l=0.13u
X93 a_3009_10831# a_1267_10309# a_2907_10309# VDD.t13 sg13_lv_pmos ad=0.38p pd=2.38u as=0.38p ps=2.38u w=2u l=0.13u
X94 VSS.t210 Vctr.t3 a_1369_10309# VSS.t209 sg13_lv_nmos ad=0.34p pd=2.68u as=0.19p ps=1.38u w=1u l=0.13u
X95 VSS.t54 VSS.t55 sub! rppd l=0.5u w=0.5u
X96 a_3521_5853# a_3317_5853# VSS.t88 VSS.t87 sg13_lv_nmos ad=0.34p pd=2.68u as=0.19p ps=1.38u w=1u l=0.13u
X97 a_1941_9917# a_1839_10309# a_1839_9195# VSS.t208 sg13_lv_nmos ad=0.19p pd=1.38u as=0.19p ps=1.38u w=1u l=0.13u
X98 a_3521_9195# a_3317_9195# VDD.t94 VDD.t4 sg13_lv_pmos ad=0.38p pd=2.38u as=0.68p ps=4.68u w=2u l=0.13u
X99 SPIKE.t2 a_2130_4709# VDD.t43 VDD.t2 sg13_lv_pmos ad=0.38p pd=2.38u as=0.38p ps=2.38u w=2u l=0.13u
X100 a_1369_8603# a_1267_9195# a_1267_8081# VDD.t4 sg13_lv_pmos ad=0.38p pd=2.38u as=0.38p ps=2.38u w=2u l=0.13u
X101 a_3317_5853# a_2907_5853# VSS.t127 VSS.t126 sg13_lv_nmos ad=0.34p pd=2.68u as=0.34p ps=2.68u w=1u l=0.13u
X102 a_2907_8081# a_2584_8081# a_2805_8603# VDD.t4 sg13_lv_pmos ad=0.38p pd=2.38u as=0.38p ps=2.38u w=2u l=0.13u
X103 VSS.t241 a_1071_4709# Ven VSS.t240 sg13_lv_nmos ad=0.34p pd=2.68u as=0.19p ps=1.38u w=1u l=0.13u
X104 VSS.t64 VSS.t65 sub! rppd l=0.5u w=0.5u
X105 VSS.t179 VSS.t180 sub! rppd l=0.5u w=0.5u
X106 a_2380_6967# a_1839_6967# VDD.t16 VDD.t6 sg13_lv_pmos ad=0.68p pd=4.68u as=0.68p ps=4.68u w=2u l=0.13u
X107 a_2788_11753# a_3837_11577# sub! rhigh l=4u w=0.5u
X108 VSS.t104 VSS.t105 sub! rppd l=0.5u w=0.5u
X109 a_2805_6375# a_1839_5853.t3 VDD.t89 VDD.t6 sg13_lv_pmos ad=0.38p pd=2.38u as=0.68p ps=4.68u w=2u l=0.13u
X110 VSS.t228 a_3317_10309# a_3521_10309# VSS.t222 sg13_lv_nmos ad=0.19p pd=1.38u as=0.19p ps=1.38u w=1u l=0.13u
X111 a_2380_8081# a_1839_8081# VSS.t125 VSS.t61 sg13_lv_nmos ad=0.34p pd=2.68u as=0.34p ps=2.68u w=1u l=0.13u
X112 VDD.t87 a_917_6931.t4 a_1941_6375# VDD.t6 sg13_lv_pmos ad=0.68p pd=4.68u as=0.38p ps=2.38u w=2u l=0.13u
X113 VSS.t173 VSS.t174 sub! rppd l=0.5u w=0.5u
X114 a_3521_8081# a_3317_8081# VDD.t25 VDD.t4 sg13_lv_pmos ad=0.68p pd=4.68u as=0.38p ps=2.38u w=2u l=0.13u
X115 a_1369_9917# a_1267_10309# a_1267_9195# VSS.t159 sg13_lv_nmos ad=0.19p pd=1.38u as=0.19p ps=1.38u w=1u l=0.13u
X116 a_2907_9195# a_1267_9195# a_2805_9917# VSS.t163 sg13_lv_nmos ad=0.19p pd=1.38u as=0.19p ps=1.38u w=1u l=0.13u
X117 VSS.t69 a_3207_4709# a_2840_5276# VSS.t68 sg13_lv_nmos ad=0.34p pd=2.68u as=0.34p ps=2.68u w=1u l=0.65u
X118 VSS.t34 VSS.t35 sub! rppd l=0.5u w=0.5u
X119 a_3317_8081# a_2907_8081# VDD.t27 VDD.t4 sg13_lv_pmos ad=0.68p pd=4.68u as=0.68p ps=4.68u w=2u l=0.13u
X120 VDD.t0 VDD.t1 sub! rhigh l=4u w=0.5u
X121 VDD.t10 a_2769_4709# a_2538_4709# VDD.t2 sg13_lv_pmos ad=0.38p pd=2.38u as=0.68p ps=4.68u w=2u l=0.13u
X122 a_3992_11577# a_2951_11577# sub! rhigh l=4u w=0.5u
X123 a_2805_7689# a_1839_6967# VSS.t60 VSS.t59 sg13_lv_nmos ad=0.19p pd=1.38u as=0.34p ps=2.68u w=1u l=0.13u
X124 VSS.t66 VSS.t67 sub! rppd l=0.5u w=0.5u
X125 a_3521_5853# a_3317_5853# VDD.t23 VDD.t6 sg13_lv_pmos ad=0.38p pd=2.38u as=0.68p ps=4.68u w=2u l=0.13u
X126 a_1902_11577# a_856_11577# sub! rhigh l=4u w=0.5u
X127 a_3317_10309# a_2907_10309# VSS.t171 VSS.t157 sg13_lv_nmos ad=0.34p pd=2.68u as=0.34p ps=2.68u w=1u l=0.13u
X128 VSS.t226 VSS.t227 sub! rppd l=0.5u w=0.5u
X129 VSS.t150 Vref.t0 a_1941_7689# VSS.t149 sg13_lv_nmos ad=0.34p pd=2.68u as=0.19p ps=1.38u w=1u l=0.13u
X130 VDD.t88 a_3545_4709# a_3207_4709# VDD.t2 sg13_lv_pmos ad=0.68p pd=4.68u as=0.68p ps=4.68u w=2u l=0.65u
X131 a_1941_10831# a_1839_5853.t4 a_1839_10309# VDD.t13 sg13_lv_pmos ad=0.38p pd=2.38u as=0.38p ps=2.38u w=2u l=0.13u
X132 a_2380_10309# a_1839_10309# VSS.t235 VSS.t234 sg13_lv_nmos ad=0.34p pd=2.68u as=0.34p ps=2.68u w=1u l=0.13u
X133 a_1839_9195# VDD.t59 VDD.t60 VDD.t4 sg13_lv_pmos ad=0.38p pd=2.38u as=0.68p ps=4.68u w=2u l=0.13u
X134 VDD.t79 VDD.t80 sub! rhigh l=4u w=0.5u
X135 VDD.t8 VDD.t9 sub! rhigh l=4u w=0.5u
X136 VSS.t115 VSS.t116 sub! rppd l=0.5u w=0.5u
X137 a_3521_9195# a_3317_9195# VSS.t221 VSS.t220 sg13_lv_nmos ad=0.34p pd=2.68u as=0.19p ps=1.38u w=1u l=0.13u
X138 a_3521_9195# VOUT.t3 sub! rppd l=0.5u w=0.5u
X139 VDD.t106 a_1071_4709# Ven VDD.t2 sg13_lv_pmos ad=0.68p pd=4.68u as=0.38p ps=2.38u w=2u l=0.13u
X140 VSS.t143 a_2130_4709# SPIKE.t1 VSS.t142 sg13_lv_nmos ad=0.34p pd=2.68u as=0.19p ps=1.38u w=1u l=0.13u
X141 a_3009_10309# a_2584_10309# a_2907_10309# VSS.t22 sg13_lv_nmos ad=0.19p pd=1.38u as=0.19p ps=1.38u w=1u l=0.13u
X142 VSS.t40 VSS.t41 sub! rppd l=0.5u w=0.5u
X143 a_3317_9195# a_2907_9195# VSS.t158 VSS.t157 sg13_lv_nmos ad=0.34p pd=2.68u as=0.34p ps=2.68u w=1u l=0.13u
X144 a_2897_5460# a_2840_5276# VSS.t45 VSS.t44 sg13_lv_nmos ad=0.19p pd=1.38u as=0.19p ps=1.38u w=1u l=0.13u
X145 VSS.t18 VSS.t19 sub! rppd l=0.5u w=0.5u
X146 a_3521_5853# VOUT.t4 sub! rppd l=0.5u w=0.5u
X147 a_3521_6967# a_3317_6967# VSS.t83 VSS.t82 sg13_lv_nmos ad=0.19p pd=1.38u as=0.34p ps=2.68u w=1u l=0.13u
X148 a_2805_6967# a_1839_6967# VDD.t15 VDD.t6 sg13_lv_pmos ad=0.38p pd=2.38u as=0.68p ps=4.68u w=2u l=0.13u
X149 VDD.t100 a_917_6931.t5 a_1941_6967# VDD.t6 sg13_lv_pmos ad=0.68p pd=4.68u as=0.38p ps=2.38u w=2u l=0.13u
X150 VSS.t212 Vctr.t4 a_1369_5853# VSS.t211 sg13_lv_nmos ad=0.34p pd=2.68u as=0.19p ps=1.38u w=1u l=0.13u
X151 VDD.t14 a_2380_10309# a_3009_10831# VDD.t13 sg13_lv_pmos ad=0.68p pd=4.68u as=0.38p ps=2.38u w=2u l=0.13u
X152 a_1267_9195# VDD.t57 VDD.t58 VDD.t4 sg13_lv_pmos ad=0.38p pd=2.38u as=0.68p ps=4.68u w=2u l=0.13u
X153 a_3009_5853# a_2584_5853# a_2907_5853# VSS.t33 sg13_lv_nmos ad=0.19p pd=1.38u as=0.19p ps=1.38u w=1u l=0.13u
X154 VSS.t121 VSS.t122 sub! rppd l=0.5u w=0.5u
X155 a_3521_10309# a_3317_10309# VDD.t97 VDD.t13 sg13_lv_pmos ad=0.68p pd=4.68u as=0.38p ps=2.38u w=2u l=0.13u
X156 a_2805_8081# a_1839_8081# VSS.t124 VSS.t59 sg13_lv_nmos ad=0.19p pd=1.38u as=0.34p ps=2.68u w=1u l=0.13u
X157 a_3521_10309# VOUT.t2 sub! rppd l=0.5u w=0.5u
X158 VSS.t151 Vref.t1 a_1941_8081# VSS.t149 sg13_lv_nmos ad=0.34p pd=2.68u as=0.19p ps=1.38u w=1u l=0.13u
X159 VSS.t133 a_1692_4709# a_1479_4709# VSS.t243 sg13_lv_nmos ad=0.19p pd=1.38u as=0.34p ps=2.68u w=1u l=0.13u
X160 a_1267_10309# VDD.t55 VDD.t56 VDD.t13 sg13_lv_pmos ad=0.38p pd=2.38u as=0.68p ps=4.68u w=2u l=0.13u
X161 a_1839_5853.t1 VDD.t53 VDD.t54 VDD.t6 sg13_lv_pmos ad=0.38p pd=2.38u as=0.68p ps=4.68u w=2u l=0.13u
X162 VSS.t199 VSS.t200 sub! rppd l=0.5u w=0.5u
X163 a_3521_6967# a_3317_6967# VDD.t19 VDD.t6 sg13_lv_pmos ad=0.38p pd=2.38u as=0.68p ps=4.68u w=2u l=0.13u
X164 VDD.t92 a_3317_9195# a_3521_9195# VDD.t4 sg13_lv_pmos ad=0.38p pd=2.38u as=0.38p ps=2.38u w=2u l=0.13u
X165 VSS.t216 VSS.t217 sub! rppd l=0.5u w=0.5u
X166 VSS.t46 VSS.t47 sub! rppd l=0.5u w=0.5u
X167 VDD.t42 a_2130_4709# SPIKE.t2 VDD.t2 sg13_lv_pmos ad=0.68p pd=4.68u as=0.38p ps=2.38u w=2u l=0.13u
X168 VSS.t187 VSS.t188 sub! rppd l=0.5u w=0.5u
X169 VDD.t81 a_917_8508.t7 a_1369_8603# VDD.t4 sg13_lv_pmos ad=0.68p pd=4.68u as=0.38p ps=2.38u w=2u l=0.13u
X170 VSS.t131 vCMP.t2 a_4221_4709# VSS.t130 sg13_lv_nmos ad=0.34p pd=2.68u as=0.34p ps=2.68u w=1u l=0.65u
X171 VSS.t26 a_3883_4709# a_3545_4709# VSS.t25 sg13_lv_nmos ad=0.34p pd=2.68u as=0.34p ps=2.68u w=1u l=0.65u
X172 a_3009_8603# a_1267_8081# a_2907_8081# VDD.t4 sg13_lv_pmos ad=0.38p pd=2.38u as=0.38p ps=2.38u w=2u l=0.13u
X173 a_1941_10309# a_1839_5853.t4 a_1839_10309# VSS.t208 sg13_lv_nmos ad=0.19p pd=1.38u as=0.19p ps=1.38u w=1u l=0.13u
X174 a_3521_8081# a_3317_8081# VSS.t91 VSS.t82 sg13_lv_nmos ad=0.19p pd=1.38u as=0.34p ps=2.68u w=1u l=0.13u
X175 a_2584_9195# a_1267_9195# VDD.t72 VDD.t4 sg13_lv_pmos ad=0.68p pd=4.68u as=0.68p ps=4.68u w=2u l=0.13u
X176 VDD.t82 a_2380_9195# a_3009_9195# VDD.t4 sg13_lv_pmos ad=0.68p pd=4.68u as=0.38p ps=2.38u w=2u l=0.13u
X177 vCMP.t1 a_4828_5366# VDD.t41 VDD.t2 sg13_lv_pmos ad=0.38p pd=2.38u as=0.68p ps=4.68u w=2u l=0.13u
X178 VSS.t195 VSS.t196 sub! rppd l=0.5u w=0.5u
X179 a_3521_10309# VOUT.t1 sub! rppd l=0.5u w=0.5u
X180 VSS.t42 VSS.t43 sub! rppd l=0.5u w=0.5u
X181 a_1839_6967# VSS.t72 VSS.t73 VSS.t4 sg13_lv_nmos ad=0.19p pd=1.38u as=0.34p ps=2.68u w=1u l=0.13u
X182 VSS.t50 VSS.t51 sub! rppd l=0.5u w=0.5u
X183 a_2380_5853# a_1839_5853.t2 VSS.t96 VSS.t95 sg13_lv_nmos ad=0.34p pd=2.68u as=0.34p ps=2.68u w=1u l=0.13u
X184 a_1267_5853.t1 VDD.t51 VDD.t52 VDD.t6 sg13_lv_pmos ad=0.38p pd=2.38u as=0.68p ps=4.68u w=2u l=0.13u
X185 VSS.t14 VSS.t15 sub! rppd l=0.5u w=0.5u
X186 VDD.t101 a_917_6931.t6 a_1941_10831# VDD.t13 sg13_lv_pmos ad=0.68p pd=4.68u as=0.38p ps=2.38u w=2u l=0.13u
X187 VSS.t213 Vctr.t5 a_1369_9917# VSS.t209 sg13_lv_nmos ad=0.34p pd=2.68u as=0.19p ps=1.38u w=1u l=0.13u
X188 a_3009_9917# a_2584_9195# a_2907_9195# VSS.t22 sg13_lv_nmos ad=0.19p pd=1.38u as=0.19p ps=1.38u w=1u l=0.13u
X189 VDD.t39 a_1692_4709# a_1479_4709# VDD.t2 sg13_lv_pmos ad=0.38p pd=2.38u as=0.68p ps=4.68u w=2u l=0.13u
X190 VDD.t77 VDD.t78 sub! rhigh l=4u w=0.5u
X191 VSS.t58 a_2380_10309# a_3009_10309# VSS.t57 sg13_lv_nmos ad=0.34p pd=2.68u as=0.19p ps=1.38u w=1u l=0.13u
X192 VDD.t21 a_3317_5853# a_3521_5853# VDD.t6 sg13_lv_pmos ad=0.38p pd=2.38u as=0.38p ps=2.38u w=2u l=0.13u
X193 VSS.t52 VSS.t53 sub! rppd l=0.5u w=0.5u
X194 a_3521_10309# a_3317_10309# VSS.t228 VSS.t220 sg13_lv_nmos ad=0.34p pd=2.68u as=0.19p ps=1.38u w=1u l=0.13u
X195 VSS.t31 VSS.t32 sub! rppd l=0.5u w=0.5u
X196 a_1267_6967# VSS.t70 VSS.t71 VSS.t2 sg13_lv_nmos ad=0.19p pd=1.38u as=0.34p ps=2.68u w=1u l=0.13u
X197 VSS.t177 VSS.t178 sub! rppd l=0.5u w=0.5u
X198 a_1839_6967# VDD.t49 VDD.t50 VDD.t6 sg13_lv_pmos ad=0.38p pd=2.38u as=0.68p ps=4.68u w=2u l=0.13u
X199 a_1941_9195# a_1839_10309# a_1839_9195# VDD.t4 sg13_lv_pmos ad=0.38p pd=2.38u as=0.38p ps=2.38u w=2u l=0.13u
X200 a_2380_8081# a_1839_8081# VDD.t34 VDD.t4 sg13_lv_pmos ad=0.68p pd=4.68u as=0.68p ps=4.68u w=2u l=0.13u
X201 a_4828_5366# VOUT.t12 VDD.t40 VDD.t2 sg13_lv_pmos ad=0.38p pd=2.38u as=0.38p ps=2.38u w=2u l=0.13u
X202 a_1267_10309# Ven VSS.t7 VSS.t6 sg13_lv_nmos ad=0.19p pd=1.38u as=0.34p ps=2.68u w=1u l=0.13u
X203 VSS.t117 VSS.t118 sub! rppd l=0.5u w=0.5u
X204 VDD.t84 a_4221_4709# a_3883_4709# VDD.t2 sg13_lv_pmos ad=0.68p pd=4.68u as=0.68p ps=4.68u w=2u l=0.65u
X205 VDD.t7 a_2380_5853# a_3009_6375# VDD.t6 sg13_lv_pmos ad=0.68p pd=4.68u as=0.38p ps=2.38u w=2u l=0.13u
X206 VSS.t249 VSS.t250 sub! rppd l=0.5u w=0.5u
X207 a_1839_8081# Ven VSS.t5 VSS.t4 sg13_lv_nmos ad=0.19p pd=1.38u as=0.34p ps=2.68u w=1u l=0.13u
X208 a_3521_5853# VOUT.t7 sub! rppd l=0.5u w=0.5u
X209 a_2584_5853# a_1267_5853.t3 VDD.t68 VDD.t6 sg13_lv_pmos ad=0.68p pd=4.68u as=0.68p ps=4.68u w=2u l=0.13u
X210 a_2951_11577# a_3837_11577# sub! rhigh l=4u w=0.5u
X211 a_2769_4709# vCMP.t3 a_2897_5460# VSS.t246 sg13_lv_nmos ad=0.34p pd=2.68u as=0.19p ps=1.38u w=1u l=0.13u
X212 VSS.t81 a_3317_6967# a_3521_6967# VSS.t80 sg13_lv_nmos ad=0.19p pd=1.38u as=0.19p ps=1.38u w=1u l=0.13u
X213 a_3521_6967# VOUT.t10 sub! rppd l=0.5u w=0.5u
X214 a_2380_9195# a_1839_9195# VSS.t245 VSS.t234 sg13_lv_nmos ad=0.34p pd=2.68u as=0.34p ps=2.68u w=1u l=0.13u
X215 a_1267_6967# VDD.t47 VDD.t48 VDD.t6 sg13_lv_pmos ad=0.38p pd=2.38u as=0.68p ps=4.68u w=2u l=0.13u
X216 a_1369_9195# a_1267_10309# a_1267_9195# VDD.t4 sg13_lv_pmos ad=0.38p pd=2.38u as=0.38p ps=2.38u w=2u l=0.13u
X217 a_2907_9195# a_2584_9195# a_2805_9195# VDD.t4 sg13_lv_pmos ad=0.38p pd=2.38u as=0.38p ps=2.38u w=2u l=0.13u
X218 VSS.t128 VSS.t129 sub! rppd l=0.5u w=0.5u
X219 VSS.t56 a_2380_6967# a_3009_7689# VSS.t48 sg13_lv_nmos ad=0.34p pd=2.68u as=0.19p ps=1.38u w=1u l=0.13u
X220 a_2805_5853# a_1839_5853.t3 VSS.t207 VSS.t206 sg13_lv_nmos ad=0.19p pd=1.38u as=0.34p ps=2.68u w=1u l=0.13u
X221 a_2584_6967# a_1267_6967# VSS.t147 VSS.t146 sg13_lv_nmos ad=0.34p pd=2.68u as=0.34p ps=2.68u w=1u l=0.13u
X222 VSS.t153 Vref.t2 a_1941_5853# VSS.t152 sg13_lv_nmos ad=0.34p pd=2.68u as=0.19p ps=1.38u w=1u l=0.13u
X223 VSS.t197 VSS.t198 sub! rppd l=0.5u w=0.5u
X224 a_1267_8081# Ven VSS.t3 VSS.t2 sg13_lv_nmos ad=0.19p pd=1.38u as=0.34p ps=2.68u w=1u l=0.13u
X225 a_1692_4709# vCMP.t4 VSS.t133 VSS.t132 sg13_lv_nmos ad=0.19p pd=1.38u as=0.19p ps=1.38u w=1u l=0.13u
X226 a_1941_6375# a_1839_6967# a_1839_5853.t1 VDD.t6 sg13_lv_pmos ad=0.38p pd=2.38u as=0.38p ps=2.38u w=2u l=0.13u
X227 VSS.t98 Vref.t3 a_1941_10309# VSS.t97 sg13_lv_nmos ad=0.34p pd=2.68u as=0.19p ps=1.38u w=1u l=0.13u
X228 a_917_6931.t0 Vref.t4 VSS.t100 VSS.t99 sg13_lv_nmos ad=0.34p pd=2.68u as=0.34p ps=2.68u w=1u l=0.13u
X229 vCMP.t0 a_4828_5366# VSS.t135 VSS.t134 sg13_lv_nmos ad=0.19p pd=1.38u as=0.34p ps=2.68u w=1u l=0.13u
X230 a_3521_6967# VOUT.t8 sub! rppd l=0.5u w=0.5u
X231 VDD.t18 a_3317_6967# a_3521_6967# VDD.t6 sg13_lv_pmos ad=0.38p pd=2.38u as=0.38p ps=2.38u w=2u l=0.13u
X232 a_3521_9195# a_3317_9195# VDD.t92 VDD.t4 sg13_lv_pmos ad=0.68p pd=4.68u as=0.38p ps=2.38u w=2u l=0.13u
X233 VSS.t203 VSS.t204 sub! rppd l=0.5u w=0.5u
X234 a_3521_5853# a_3317_5853# VSS.t86 VSS.t85 sg13_lv_nmos ad=0.19p pd=1.38u as=0.34p ps=2.68u w=1u l=0.13u
X235 a_3317_9195# a_2907_9195# VDD.t67 VDD.t4 sg13_lv_pmos ad=0.68p pd=4.68u as=0.68p ps=4.68u w=2u l=0.13u
X236 a_2805_8603# a_1839_8081# VDD.t33 VDD.t4 sg13_lv_pmos ad=0.38p pd=2.38u as=0.68p ps=4.68u w=2u l=0.13u
X237 VSS.t90 a_3317_8081# a_3521_8081# VSS.t80 sg13_lv_nmos ad=0.19p pd=1.38u as=0.19p ps=1.38u w=1u l=0.13u
X238 VDD.t12 a_2380_6967# a_3009_6967# VDD.t6 sg13_lv_pmos ad=0.68p pd=4.68u as=0.38p ps=2.38u w=2u l=0.13u
X239 VSS.t21 a_1479_4709# a_1071_4709# VSS.t20 sg13_lv_nmos ad=0.34p pd=2.68u as=0.34p ps=2.68u w=1u l=0.13u
X240 VDD.t102 a_917_6931.t7 a_1941_8603# VDD.t4 sg13_lv_pmos ad=0.68p pd=4.68u as=0.38p ps=2.38u w=2u l=0.13u
X241 a_2584_6967# a_1267_6967# VDD.t45 VDD.t6 sg13_lv_pmos ad=0.68p pd=4.68u as=0.68p ps=4.68u w=2u l=0.13u
X242 VSS.t29 VSS.t30 sub! rppd l=0.5u w=0.5u
X243 a_1941_7689# a_1839_8081# a_1839_6967# VSS.t123 sg13_lv_nmos ad=0.19p pd=1.38u as=0.19p ps=1.38u w=1u l=0.13u
X244 VDD.t40 a_4828_5366# vCMP.t1 VDD.t2 sg13_lv_pmos ad=0.38p pd=2.38u as=0.38p ps=2.38u w=2u l=0.13u
X245 VDD.t17 a_3207_4709# a_2840_5276# VDD.t2 sg13_lv_pmos ad=0.68p pd=4.68u as=0.68p ps=4.68u w=2u l=0.65u
X246 VSS.t239 a_1071_4709# Ven VSS.t238 sg13_lv_nmos ad=0.19p pd=1.38u as=0.34p ps=2.68u w=1u l=0.13u
X247 VSS.t138 VSS.t139 sub! rppd l=0.5u w=0.5u
X248 a_1369_10831# a_1267_5853.t2 a_1267_10309# VDD.t13 sg13_lv_pmos ad=0.38p pd=2.38u as=0.38p ps=2.38u w=2u l=0.13u
X249 VSS.t184 VSS.t185 sub! rppd l=0.5u w=0.5u
X250 VSS.t49 a_2380_8081# a_3009_8081# VSS.t48 sg13_lv_nmos ad=0.34p pd=2.68u as=0.19p ps=1.38u w=1u l=0.13u
X251 a_1369_6375# a_1267_6967# a_1267_5853.t1 VDD.t6 sg13_lv_pmos ad=0.38p pd=2.38u as=0.38p ps=2.38u w=2u l=0.13u
X252 a_2584_8081# a_1267_8081# VSS.t231 VSS.t146 sg13_lv_nmos ad=0.34p pd=2.68u as=0.34p ps=2.68u w=1u l=0.13u
X253 a_917_6931.t2 a_917_6931.t1 VDD.t83 VDD.t6 sg13_lv_pmos ad=0.68p pd=4.68u as=0.68p ps=4.68u w=2u l=0.13u
X254 a_2907_5853# a_2584_5853# a_2805_6375# VDD.t6 sg13_lv_pmos ad=0.38p pd=2.38u as=0.38p ps=2.38u w=2u l=0.13u
X255 VSS.t201 VSS.t202 sub! rppd l=0.5u w=0.5u
X256 a_4828_5366# VOUT.t12 VSS.t137 VSS.t154 sg13_lv_nmos ad=0.19p pd=1.38u as=0.19p ps=1.38u w=1u l=0.13u
X257 a_2805_9917# a_1839_9195# VSS.t244 VSS.t236 sg13_lv_nmos ad=0.19p pd=1.38u as=0.34p ps=2.68u w=1u l=0.13u
X258 a_3521_8081# a_3317_8081# VDD.t24 VDD.t4 sg13_lv_pmos ad=0.38p pd=2.38u as=0.68p ps=4.68u w=2u l=0.13u
X259 a_917_8508.t2 Vctr.t6 VSS.t162 VSS.t99 sg13_lv_nmos ad=0.34p pd=2.68u as=0.34p ps=2.68u w=1u l=0.13u
X260 a_1820_4745# vCMP.t4 VDD.t39 VDD.t2 sg13_lv_pmos ad=0.38p pd=2.38u as=0.38p ps=2.38u w=2u l=0.13u
X261 a_3521_10309# a_3317_10309# VDD.t96 VDD.t13 sg13_lv_pmos ad=0.38p pd=2.38u as=0.68p ps=4.68u w=2u l=0.13u
X262 VSS.t101 Vref.t5 a_1941_9917# VSS.t97 sg13_lv_nmos ad=0.34p pd=2.68u as=0.19p ps=1.38u w=1u l=0.13u
X263 VSS.t102 VSS.t103 sub! rppd l=0.5u w=0.5u
X264 a_2584_10309# a_1267_10309# VDD.t76 VDD.t13 sg13_lv_pmos ad=0.68p pd=4.68u as=0.68p ps=4.68u w=2u l=0.13u
X265 a_1369_7689# a_1267_8081# a_1267_6967# VSS.t166 sg13_lv_nmos ad=0.19p pd=1.38u as=0.19p ps=1.38u w=1u l=0.13u
X266 a_1941_6967# a_1839_8081# a_1839_6967# VDD.t6 sg13_lv_pmos ad=0.38p pd=2.38u as=0.38p ps=2.38u w=2u l=0.13u
X267 a_3521_5853# a_3317_5853# VDD.t21 VDD.t6 sg13_lv_pmos ad=0.68p pd=4.68u as=0.38p ps=2.38u w=2u l=0.13u
X268 a_2769_4709# a_2840_5276# VDD.t10 VDD.t2 sg13_lv_pmos ad=0.38p pd=2.38u as=0.38p ps=2.38u w=2u l=0.13u
X269 VDD.t90 VDD.t91 sub! rhigh l=4u w=0.5u
X270 Vctr.t0 a_1742_11577# sub! rhigh l=4u w=0.5u
X271 VDD.t36 VDD.t37 sub! rhigh l=4u w=0.5u
X272 a_2907_6967# a_1267_6967# a_2805_7689# VSS.t145 sg13_lv_nmos ad=0.19p pd=1.38u as=0.19p ps=1.38u w=1u l=0.13u
X273 VDD.t30 VOUT.t11 a_4828_5366# VDD.t29 sg13_lv_pmos ad=0.68p pd=4.68u as=0.38p ps=2.38u w=2u l=0.13u
X274 a_3317_5853# a_2907_5853# VDD.t35 VDD.t6 sg13_lv_pmos ad=0.68p pd=4.68u as=0.68p ps=4.68u w=2u l=0.13u
X275 a_2805_10831# a_1839_10309# VDD.t103 VDD.t13 sg13_lv_pmos ad=0.38p pd=2.38u as=0.68p ps=4.68u w=2u l=0.13u
X276 VDD.t3 a_1479_4709# a_1071_4709# VDD.t2 sg13_lv_pmos ad=0.68p pd=4.68u as=0.68p ps=4.68u w=2u l=0.13u
X277 a_1839_5853.t0 Ven VSS.t1 VSS.t0 sg13_lv_nmos ad=0.19p pd=1.38u as=0.34p ps=2.68u w=1u l=0.13u
X278 a_3521_8081# VOUT.t5 sub! rppd l=0.5u w=0.5u
X279 a_1941_8081# a_1839_9195# a_1839_8081# VSS.t123 sg13_lv_nmos ad=0.19p pd=1.38u as=0.19p ps=1.38u w=1u l=0.13u
X280 VSS.t170 a_2538_4709# a_2130_4709# VSS.t169 sg13_lv_nmos ad=0.34p pd=2.68u as=0.34p ps=2.68u w=1u l=0.13u
X281 a_3521_9195# a_3317_9195# VSS.t219 VSS.t218 sg13_lv_nmos ad=0.19p pd=1.38u as=0.34p ps=2.68u w=1u l=0.13u
X282 VDD.t105 a_1071_4709# Ven VDD.t2 sg13_lv_pmos ad=0.38p pd=2.38u as=0.68p ps=4.68u w=2u l=0.13u
X283 VSS.t155 VSS.t156 sub! rppd l=0.5u w=0.5u
X284 VSS.t141 a_2130_4709# SPIKE.t0 VSS.t140 sg13_lv_nmos ad=0.19p pd=1.38u as=0.34p ps=2.68u w=1u l=0.13u
X285 VSS.t45 a_2769_4709# a_2538_4709# VSS.t225 sg13_lv_nmos ad=0.19p pd=1.38u as=0.34p ps=2.68u w=1u l=0.13u
R0 VSS.n113 VSS.n25 30510.4
R1 VSS.t238 VSS.n202 7482.41
R2 VSS.n202 VSS.n113 6449.35
R3 VSS.n230 VSS.n25 4691.1
R4 VSS.n230 VSS.t106 3100.04
R5 VSS.n113 VSS.n112 1397.79
R6 VSS.n202 VSS.n201 853.591
R7 VSS.t242 VSS.t238 280.993
R8 VSS.n59 VSS.t8 200.773
R9 VSS.t4 VSS.n128 200.773
R10 VSS.t106 VSS.t154 194.162
R11 VSS.n66 VSS.t234 192.486
R12 VSS.t61 VSS.n124 192.486
R13 VSS.t164 VSS.n48 192.386
R14 VSS.n147 VSS.t146 192.386
R15 VSS.n208 VSS.t20 189.142
R16 VSS.t97 VSS.n50 185.083
R17 VSS.n143 VSS.t149 185.083
R18 VSS.t152 VSS.n211 184.573
R19 VSS.t159 VSS.n52 174.034
R20 VSS.n141 VSS.t166 174.034
R21 VSS.n206 VSS.t148 173.554
R22 VSS.n205 VSS.t240 173.554
R23 VSS.n214 VSS.t144 159.78
R24 VSS.t154 VSS.n229 154.189
R25 VSS.t22 VSS.n46 151.935
R26 VSS.n70 VSS.t236 151.935
R27 VSS.n149 VSS.t186 151.935
R28 VSS.t59 VSS.n120 151.935
R29 VSS.n201 VSS.t99 151.935
R30 VSS.n219 VSS.t33 151.516
R31 VSS.n217 VSS.t206 151.516
R32 VSS.t218 VSS.n44 150.95
R33 VSS.n74 VSS.t157 150.95
R34 VSS.n153 VSS.t82 150.95
R35 VSS.t93 VSS.n118 150.95
R36 VSS.t85 VSS.n221 150.572
R37 VSS.n209 VSS.t243 148.761
R38 VSS.n79 VSS.t222 146.41
R39 VSS.t80 VSS.n115 146.41
R40 VSS.n223 VSS.t89 146.006
R41 VSS.t169 VSS.n215 136.798
R42 VSS.t140 VSS.n212 135.601
R43 VSS.n79 VSS.t220 135.359
R44 VSS.n115 VSS.t84 135.359
R45 VSS.t87 VSS.n223 134.987
R46 VSS.t132 VSS.n209 132.232
R47 VSS.t57 VSS.n46 129.834
R48 VSS.n70 VSS.t163 129.834
R49 VSS.n149 VSS.t48 129.834
R50 VSS.t145 VSS.n120 129.834
R51 VSS.t27 VSS.n219 129.477
R52 VSS.n227 VSS.t130 127.073
R53 VSS.t2 VSS.n134 123.424
R54 VSS.n226 VSS.t190 123.299
R55 VSS.t142 VSS.n214 121.213
R56 VSS.n225 VSS.t25 119.505
R57 VSS.t209 VSS.n52 107.736
R58 VSS.n112 VSS.t6 107.736
R59 VSS.n141 VSS.t181 107.736
R60 VSS.t211 VSS.n206 107.439
R61 VSS.t10 VSS.n203 107.439
R62 VSS.n51 VSS.t208 105.555
R63 VSS.t123 VSS.n142 105.555
R64 VSS.n228 VSS.t134 104.695
R65 VSS.t44 VSS.n217 101.928
R66 VSS.t208 VSS.n50 96.6856
R67 VSS.n143 VSS.t123 96.6856
R68 VSS.n211 VSS.t63 96.4192
R69 VSS.n59 VSS.t209 95.8024
R70 VSS.t181 VSS.n128 95.8024
R71 VSS.n53 VSS.t6 94.5061
R72 VSS.n140 VSS.t2 94.5061
R73 VSS.t136 VSS.n228 89.4675
R74 VSS.t126 VSS.t68 88.1548
R75 VSS.n213 VSS.t140 80.5052
R76 VSS.n207 VSS.t211 79.8903
R77 VSS.n204 VSS.t10 79.8903
R78 VSS.n203 VSS.t242 79.8903
R79 VSS.n74 VSS.t57 73.6022
R80 VSS.t48 VSS.n118 73.6022
R81 VSS.n220 VSS.t27 73.4388
R82 VSS.t163 VSS.n47 72.4066
R83 VSS.n148 VSS.t145 72.4066
R84 VSS.n218 VSS.t112 72.2407
R85 VSS.t220 VSS.n42 68.177
R86 VSS.t84 VSS.n33 68.1562
R87 VSS.t157 VSS.n44 68.0773
R88 VSS.n153 VSS.t93 68.0773
R89 VSS.n224 VSS.t87 68.0135
R90 VSS.n221 VSS.t126 67.9292
R91 VSS.n78 VSS.t218 66.8818
R92 VSS.t82 VSS.n116 66.8818
R93 VSS.n222 VSS.t85 66.7311
R94 VSS.t68 VSS.n220 62.4185
R95 VSS.t222 VSS.n78 55.832
R96 VSS.n116 VSS.t80 55.832
R97 VSS.t89 VSS.n222 55.7118
R98 VSS.t160 VSS.t169 55.0969
R99 VSS.t95 VSS.t142 55.0969
R100 VSS.t243 VSS.n208 54.1541
R101 VSS.t232 VSS.n210 52.957
R102 VSS.t63 VSS.t232 52.3421
R103 VSS.t0 VSS.t132 52.3421
R104 VSS.n134 VSS.t99 51.6035
R105 VSS.t236 VSS.n67 51.5954
R106 VSS.n123 VSS.t59 51.5954
R107 VSS.n47 VSS.t22 50.3072
R108 VSS.t186 VSS.n148 50.3072
R109 VSS.t144 VSS.n213 41.9377
R110 VSS.n229 VSS.t136 39.9751
R111 VSS.t134 VSS.n227 39.9408
R112 VSS.t190 VSS.n225 36.0653
R113 VSS.t25 VSS.n224 35.2758
R114 VSS.t130 VSS.n226 32.2726
R115 VSS.n53 VSS.t159 28.2077
R116 VSS.t166 VSS.n140 28.2077
R117 VSS.t33 VSS.t246 27.5487
R118 VSS.t112 VSS.t44 27.5487